
     RDKit          3D

 16 16  0  0  0  0  0  0  0  0999 V2000
    2.5077   -1.8292    0.1028 C   0  0  0  0  0  0  0  0  0  0  0  0
    3.1973   -0.8659   -0.7596 N   0  0  0  0  0  0  0  0  0  0  0  0
    3.3674    0.4272   -0.1556 C   0  0  0  0  0  0  0  0  0  0  0  0
    4.6111    1.1350   -0.1915 N   0  0  0  0  0  0  0  0  0  0  0  0
    2.3575    0.9128    0.4059 N   0  0  0  0  0  0  0  0  0  0  0  0
    1.0586    0.4443    0.5708 C   0  0  0  0  0  0  0  0  0  0  0  0
    0.6905   -0.1387    1.6095 O   0  0  0  0  0  0  0  0  0  0  0  0
    0.0905    0.6261   -0.4512 N   0  0  0  0  0  0  0  0  0  0  0  0
   -1.2476    0.1792   -0.3043 C   0  0  0  0  0  0  0  0  0  0  0  0
   -1.7414   -0.9960   -0.8135 C   0  0  0  0  0  0  0  0  0  0  0  0
   -0.8502   -1.8755   -1.6372 C   0  0  0  0  0  0  0  0  0  0  0  0
   -3.0630   -1.3543   -0.5883 C   0  0  0  0  0  0  0  0  0  0  0  0
   -3.9097   -0.5544    0.1415 C   0  0  0  0  0  0  0  0  0  0  0  0
   -3.4162    0.6276    0.6536 C   0  0  0  0  0  0  0  0  0  0  0  0
   -2.1090    0.9973    0.4401 C   0  0  0  0  0  0  0  0  0  0  0  0
   -1.5435    2.2646    0.9771 C   0  0  0  0  0  0  0  0  0  0  0  0
  1  2  1  0
  2  3  1  0
  3  4  1  0
  3  5  2  0
  5  6  1  0
  6  7  2  0
  6  8  1  0
  8  9  1  0
  9 10  2  0
 10 11  1  0
 10 12  1  0
 12 13  2  0
 13 14  1  0
 14 15  2  0
 15 16  1  0
 15  9  1  0
M  END
>  <zinc_id>  (1) 
ZINC000013115357

>  <smiles>  (1) 
CN/C(N)=N\C(=O)Nc1c(C)cccc1C

$$$$

     RDKit          3D

 16 16  0  0  0  0  0  0  0  0999 V2000
    4.9946    1.3768    0.1365 C   0  0  0  0  0  0  0  0  0  0  0  0
    4.4886    0.0800   -0.2700 N   0  0  0  0  0  0  0  0  0  0  0  0
    3.1296   -0.3156   -0.0392 C   0  0  0  0  0  0  0  0  0  0  0  0
    2.6952   -1.6460   -0.0779 N   0  0  0  0  0  0  0  0  0  0  0  0
    2.2782    0.6137    0.2154 N   0  0  0  0  0  0  0  0  0  0  0  0
    0.9093    0.2659    0.4526 C   0  0  0  0  0  0  0  0  0  0  0  0
    0.5533   -0.2858    1.5148 O   0  0  0  0  0  0  0  0  0  0  0  0
   -0.0882    0.5406   -0.5198 N   0  0  0  0  0  0  0  0  0  0  0  0
   -1.4232    0.1828   -0.2481 C   0  0  0  0  0  0  0  0  0  0  0  0
   -2.2672    1.0954    0.3867 C   0  0  0  0  0  0  0  0  0  0  0  0
   -1.7482    2.4480    0.7746 C   0  0  0  0  0  0  0  0  0  0  0  0
   -3.5776    0.7791    0.6675 C   0  0  0  0  0  0  0  0  0  0  0  0
   -4.0302   -0.4629    0.3038 C   0  0  0  0  0  0  0  0  0  0  0  0
   -3.1940   -1.3749   -0.3284 C   0  0  0  0  0  0  0  0  0  0  0  0
   -1.8858   -1.0628   -0.6102 C   0  0  0  0  0  0  0  0  0  0  0  0
   -0.8345   -2.2343   -1.4151 Cl  0  0  0  0  0  0  0  0  0  0  0  0
  1  2  1  0
  2  3  1  0
  3  4  1  0
  3  5  2  0
  5  6  1  0
  6  7  2  0
  6  8  1  0
  8  9  1  0
  9 10  2  0
 10 11  1  0
 10 12  1  0
 12 13  2  0
 13 14  1  0
 14 15  2  0
 15 16  1  0
 15  9  1  0
M  END
>  <zinc_id>  (2) 
ZINC000033853672

>  <smiles>  (2) 
CN/C(N)=N/C(=O)Nc1c(C)cccc1Cl

$$$$

     RDKit          3D

 16 16  0  0  0  0  0  0  0  0999 V2000
    5.1072   -0.0042   -0.4027 C   0  0  0  0  0  0  0  0  0  0  0  0
    4.4633   -0.7076    0.7167 N   0  0  0  0  0  0  0  0  0  0  0  0
    3.0363   -0.7156    0.7351 C   0  0  0  0  0  0  0  0  0  0  0  0
    2.4068   -1.0276    1.9561 N   0  0  0  0  0  0  0  0  0  0  0  0
    2.3302   -0.4571   -0.2883 N   0  0  0  0  0  0  0  0  0  0  0  0
    0.9121   -0.4916   -0.1659 C   0  0  0  0  0  0  0  0  0  0  0  0
    0.2966   -1.5068    0.2648 O   0  0  0  0  0  0  0  0  0  0  0  0
    0.1077    0.6269   -0.5260 N   0  0  0  0  0  0  0  0  0  0  0  0
   -1.3126    0.5705   -0.3951 C   0  0  0  0  0  0  0  0  0  0  0  0
   -1.9409    0.9585    0.7738 C   0  0  0  0  0  0  0  0  0  0  0  0
   -1.0036    1.5345    2.1368 Cl  0  0  0  0  0  0  0  0  0  0  0  0
   -3.3136    0.9092    0.9145 C   0  0  0  0  0  0  0  0  0  0  0  0
   -4.1155    0.4653   -0.1201 C   0  0  0  0  0  0  0  0  0  0  0  0
   -3.4902    0.0800   -1.2810 C   0  0  0  0  0  0  0  0  0  0  0  0
   -2.1320    0.1307   -1.4151 C   0  0  0  0  0  0  0  0  0  0  0  0
   -1.3518   -0.3649   -2.9037 Cl  0  0  0  0  0  0  0  0  0  0  0  0
  1  2  1  0
  2  3  1  0
  3  4  1  0
  3  5  2  0
  5  6  1  0
  6  7  2  0
  6  8  1  0
  8  9  1  0
  9 10  2  0
 10 11  1  0
 10 12  1  0
 12 13  2  0
 13 14  1  0
 14 15  2  0
 15 16  1  0
 15  9  1  0
M  END
>  <zinc_id>  (3) 
ZINC000033857711

>  <smiles>  (3) 
CN/C(N)=N/C(=O)Nc1c(Cl)cccc1Cl

$$$$

     RDKit          3D

 16 16  0  0  0  0  0  0  0  0999 V2000
    5.5897    1.1151   -0.9877 C   0  0  0  0  0  0  0  0  0  0  0  0
    4.5339    1.1805    0.0039 N   0  0  0  0  0  0  0  0  0  0  0  0
    3.2196    0.7352   -0.2348 C   0  0  0  0  0  0  0  0  0  0  0  0
    2.9727    0.2600   -1.3740 O   0  0  0  0  0  0  0  0  0  0  0  0
    2.1342    0.7983    0.7729 C   0  0  0  0  0  0  0  0  0  0  0  0
    0.8612    0.2657    0.2588 C   0  0  0  0  0  0  0  0  0  0  0  0
    0.6914   -0.1964   -0.9032 O   0  0  0  0  0  0  0  0  0  0  0  0
   -0.2834    0.2546    1.1040 N   0  0  0  0  0  0  0  0  0  0  0  0
   -1.5416   -0.2440    0.6737 C   0  0  0  0  0  0  0  0  0  0  0  0
   -1.8948   -1.5659    0.8344 C   0  0  0  0  0  0  0  0  0  0  0  0
   -0.9553   -2.5518    1.4793 C   0  0  0  0  0  0  0  0  0  0  0  0
   -3.1363   -1.9538    0.3850 C   0  0  0  0  0  0  0  0  0  0  0  0
   -4.0247   -1.0708   -0.2130 C   0  0  0  0  0  0  0  0  0  0  0  0
   -3.6694    0.2430   -0.3708 C   0  0  0  0  0  0  0  0  0  0  0  0
   -2.4100    0.6453    0.0829 C   0  0  0  0  0  0  0  0  0  0  0  0
   -2.0875    2.0849   -0.1192 C   0  0  0  0  0  0  0  0  0  0  0  0
  1  2  1  0
  2  3  1  0
  3  4  2  0
  3  5  1  0
  5  6  1  0
  6  7  2  0
  6  8  1  0
  8  9  1  0
  9 10  2  0
 10 11  1  0
 10 12  1  0
 12 13  2  0
 13 14  1  0
 14 15  2  0
 15 16  1  0
 15  9  1  0
M  END
>  <zinc_id>  (4) 
ZINC000336626208

>  <smiles>  (4) 
CNC(=O)CC(=O)Nc1c(C)cccc1C

$$$$

     RDKit          3D

 16 16  0  0  0  0  0  0  0  0999 V2000
   -1.6568   -0.8015   -2.1984 C   0  0  0  0  0  0  0  0  0  0  0  0
   -2.1891   -0.2928   -0.9001 C   0  0  0  0  0  0  0  0  0  0  0  0
   -3.4145   -0.7661   -0.4863 C   0  0  0  0  0  0  0  0  0  0  0  0
   -3.9247   -0.3085    0.7112 C   0  0  0  0  0  0  0  0  0  0  0  0
   -3.1933    0.5969    1.4397 C   0  0  0  0  0  0  0  0  0  0  0  0
   -1.9706    1.0729    1.0328 C   0  0  0  0  0  0  0  0  0  0  0  0
   -1.1857    2.0536    1.8289 C   0  0  0  0  0  0  0  0  0  0  0  0
   -1.4524    0.6268   -0.1542 C   0  0  0  0  0  0  0  0  0  0  0  0
   -0.2079    1.0395   -0.6810 N   0  0  0  0  0  0  0  0  0  0  0  0
    0.9772    0.2924   -0.3337 C   0  0  0  0  0  0  0  0  0  0  0  0
    0.7591   -0.6745    0.4248 O   0  0  0  0  0  0  0  0  0  0  0  0
    2.3017    0.6884   -0.8623 C   0  0  0  0  0  0  0  0  0  0  0  0
    3.3346   -0.2085   -0.3765 C   0  0  0  0  0  0  0  0  0  0  0  0
    4.7182   -0.0674   -0.7257 N   0  0  0  0  0  0  0  0  0  0  0  0
    3.0729   -1.1925    0.4024 N   0  0  0  0  0  0  0  0  0  0  0  0
    4.0314   -2.0587    0.8784 O   0  0  0  0  0  0  0  0  0  0  0  0
  1  2  1  0
  2  3  2  0
  3  4  1  0
  4  5  2  0
  5  6  1  0
  6  7  1  0
  6  8  2  0
  8  9  1  0
  9 10  1  0
 10 11  2  0
 10 12  1  0
 12 13  1  0
 13 14  1  0
 13 15  2  0
 15 16  1  0
  8  2  1  0
M  END
>  <zinc_id>  (5) 
ZINC000004865575

>  <smiles>  (5) 
Cc1cccc(C)c1NC(=O)C/C(N)=N/O

$$$$

     RDKit          3D

 16 16  0  0  0  0  0  0  0  0999 V2000
    5.7723    0.1263    0.2893 C   0  0  0  0  0  0  0  0  0  0  0  0
    4.5709   -0.6554    0.5181 N   0  0  0  0  0  0  0  0  0  0  0  0
    3.2719   -0.1400    0.2354 C   0  0  0  0  0  0  0  0  0  0  0  0
    3.1820    1.0196   -0.2221 O   0  0  0  0  0  0  0  0  0  0  0  0
    2.1244   -1.0329    0.5109 C   0  0  0  0  0  0  0  0  0  0  0  0
    0.8376   -0.3533    0.1650 C   0  0  0  0  0  0  0  0  0  0  0  0
    0.8146    0.8297   -0.2974 O   0  0  0  0  0  0  0  0  0  0  0  0
   -0.4057   -1.0006    0.3388 N   0  0  0  0  0  0  0  0  0  0  0  0
   -1.6242   -0.3463    0.0070 C   0  0  0  0  0  0  0  0  0  0  0  0
   -2.2591    0.3958    0.9808 C   0  0  0  0  0  0  0  0  0  0  0  0
   -1.6438    0.4788    2.3305 C   0  0  0  0  0  0  0  0  0  0  0  0
   -3.4593    1.0577    0.7037 C   0  0  0  0  0  0  0  0  0  0  0  0
   -4.0279    0.9767   -0.5555 C   0  0  0  0  0  0  0  0  0  0  0  0
   -3.3919    0.2321   -1.5346 C   0  0  0  0  0  0  0  0  0  0  0  0
   -2.2060   -0.4152   -1.2419 C   0  0  0  0  0  0  0  0  0  0  0  0
   -1.5558   -1.1730   -2.2330 O   0  0  0  0  0  0  0  0  0  0  0  0
  1  2  1  0
  2  3  1  0
  3  4  2  0
  3  5  1  0
  5  6  1  0
  6  7  2  0
  6  8  1  0
  8  9  1  0
  9 10  2  0
 10 11  1  0
 10 12  1  0
 12 13  2  0
 13 14  1  0
 14 15  2  0
 15 16  1  0
 15  9  1  0
M  END
>  <zinc_id>  (6) 
ZINC000335882299

>  <smiles>  (6) 
CNC(=O)CC(=O)Nc1c(C)cccc1O

$$$$

     RDKit          3D

 16 16  0  0  0  0  0  0  0  0999 V2000
    5.1320    1.8072   -1.8994 C   0  0  0  0  0  0  0  0  0  0  0  0
    4.5146    0.8081   -1.0522 N   0  0  0  0  0  0  0  0  0  0  0  0
    3.1039    0.8106   -0.9337 C   0  0  0  0  0  0  0  0  0  0  0  0
    2.4634    1.6802   -1.5704 O   0  0  0  0  0  0  0  0  0  0  0  0
    2.3580   -0.1568   -0.1007 C   0  0  0  0  0  0  0  0  0  0  0  0
    0.9012    0.0506   -0.1414 C   0  0  0  0  0  0  0  0  0  0  0  0
    0.3441    0.9498   -0.8093 O   0  0  0  0  0  0  0  0  0  0  0  0
    0.0863   -0.8234    0.6236 N   0  0  0  0  0  0  0  0  0  0  0  0
   -1.3174   -0.7322    0.6708 C   0  0  0  0  0  0  0  0  0  0  0  0
   -1.9168    0.0536    1.6258 C   0  0  0  0  0  0  0  0  0  0  0  0
   -1.0557    0.7839    2.5809 C   0  0  0  0  0  0  0  0  0  0  0  0
   -3.3016    0.1661    1.7006 C   0  0  0  0  0  0  0  0  0  0  0  0
   -4.1108   -0.5067    0.8199 C   0  0  0  0  0  0  0  0  0  0  0  0
   -3.5215   -1.3057   -0.1520 C   0  0  0  0  0  0  0  0  0  0  0  0
   -2.1419   -1.4023   -0.2071 C   0  0  0  0  0  0  0  0  0  0  0  0
   -1.5378   -2.1828   -1.1553 F   0  0  0  0  0  0  0  0  0  0  0  0
  1  2  1  0
  2  3  1  0
  3  4  2  0
  3  5  1  0
  5  6  1  0
  6  7  2  0
  6  8  1  0
  8  9  1  0
  9 10  2  0
 10 11  1  0
 10 12  1  0
 12 13  2  0
 13 14  1  0
 14 15  2  0
 15 16  1  0
 15  9  1  0
M  END
>  <zinc_id>  (7) 
ZINC000357473913

>  <smiles>  (7) 
CNC(=O)CC(=O)Nc1c(C)cccc1F

$$$$

     RDKit          3D

 16 16  0  0  0  0  0  0  0  0999 V2000
    4.1978    0.5774    0.4503 C   0  0  0  0  0  0  0  0  0  0  0  0
    3.1730    0.1893    0.1918 N   0  0  0  0  0  0  0  0  0  0  0  0
    3.0931   -1.3175    0.6953 C   0  0  2  0  0  0  0  0  0  0  0  0
    4.3202   -1.8015   -0.3345 C   0  0  0  0  0  0  0  0  0  0  0  0
    1.9161   -1.7143   -0.3981 C   0  0  0  0  0  0  0  0  0  0  0  0
    0.8260   -0.8024   -0.0244 C   0  0  0  0  0  0  0  0  0  0  0  0
    0.8431    0.0221    0.9245 O   0  0  0  0  0  0  0  0  0  0  0  0
   -0.3938   -0.8206   -0.7885 N   0  0  0  0  0  0  0  0  0  0  0  0
   -1.4862    0.0515   -0.4619 C   0  0  0  0  0  0  0  0  0  0  0  0
   -2.4802   -0.3116    0.4238 C   0  0  0  0  0  0  0  0  0  0  0  0
   -2.3897   -1.6549    1.0448 C   0  0  0  0  0  0  0  0  0  0  0  0
   -3.4845    0.5878    0.6735 C   0  0  0  0  0  0  0  0  0  0  0  0
   -3.5623    1.8379    0.0915 C   0  0  0  0  0  0  0  0  0  0  0  0
   -2.5575    2.1798   -0.7910 C   0  0  0  0  0  0  0  0  0  0  0  0
   -1.5443    1.3007   -1.0574 C   0  0  0  0  0  0  0  0  0  0  0  0
   -0.4707    1.6763   -2.0062 C   0  0  0  0  0  0  0  0  0  0  0  0
  1  2  1  0
  2  3  1  0
  3  4  1  6
  3  5  1  0
  5  6  1  0
  6  7  2  0
  6  8  1  0
  8  9  1  0
  9 10  2  0
 10 11  1  0
 10 12  1  0
 12 13  2  0
 13 14  1  0
 14 15  2  0
 15 16  1  0
 15  9  1  0
M  END
>  <zinc_id>  (8) 
ZINC000077331072

>  <smiles>  (8) 
CN[C@H](C)CC(=O)Nc1c(C)cccc1C

$$$$

     RDKit          3D

 16 16  0  0  0  0  0  0  0  0999 V2000
    4.9853   -0.6562    0.1910 C   0  0  0  0  0  0  0  0  0  0  0  0
    4.5681    0.5964   -0.1326 N   0  0  0  0  0  0  0  0  0  0  0  0
    3.2316    0.7777    0.7455 C   0  0  1  0  0  0  0  0  0  0  0  0
    2.9950    2.3251    0.1440 C   0  0  0  0  0  0  0  0  0  0  0  0
    2.2863    0.1048   -0.4374 C   0  0  0  0  0  0  0  0  0  0  0  0
    0.9201    0.1544    0.1547 C   0  0  0  0  0  0  0  0  0  0  0  0
    0.6570    0.6156    1.2859 O   0  0  0  0  0  0  0  0  0  0  0  0
   -0.1335   -0.3533   -0.6182 N   0  0  0  0  0  0  0  0  0  0  0  0
   -1.4956   -0.3842   -0.2087 C   0  0  0  0  0  0  0  0  0  0  0  0
   -2.3518    0.6749   -0.4789 C   0  0  0  0  0  0  0  0  0  0  0  0
   -1.8032    1.8455   -1.2104 C   0  0  0  0  0  0  0  0  0  0  0  0
   -3.6651    0.5933   -0.0586 C   0  0  0  0  0  0  0  0  0  0  0  0
   -4.0660   -0.5413    0.6125 C   0  0  0  0  0  0  0  0  0  0  0  0
   -3.2391   -1.6012    0.8915 C   0  0  0  0  0  0  0  0  0  0  0  0
   -1.9287   -1.5148    0.4697 C   0  0  0  0  0  0  0  0  0  0  0  0
   -0.9603   -2.6369    0.7383 C   0  0  0  0  0  0  0  0  0  0  0  0
  1  2  1  0
  2  3  1  0
  3  4  1  6
  3  5  1  0
  5  6  1  0
  6  7  2  0
  6  8  1  0
  8  9  1  0
  9 10  2  0
 10 11  1  0
 10 12  1  0
 12 13  2  0
 13 14  1  0
 14 15  2  0
 15 16  1  0
 15  9  1  0
M  END
>  <zinc_id>  (9) 
ZINC000077331074

>  <smiles>  (9) 
CN[C@@H](C)CC(=O)Nc1c(C)cccc1C

$$$$

     RDKit          3D

 16 16  0  0  0  0  0  0  0  0999 V2000
   -4.9229    0.7202   -0.0497 C   0  0  0  0  0  0  0  0  0  0  0  0
   -4.6516    0.2559   -0.0365 C   0  0  0  0  0  0  0  0  0  0  0  0
   -3.2517   -0.1713    0.7922 C   0  0  1  0  0  0  0  0  0  0  0  0
   -3.3002   -1.6607    0.1827 N   0  0  0  0  0  0  0  0  0  0  0  0
   -2.2826    0.3684   -0.4427 C   0  0  0  0  0  0  0  0  0  0  0  0
   -0.9099    0.0911    0.0634 C   0  0  0  0  0  0  0  0  0  0  0  0
   -0.6567   -0.4293    1.1725 O   0  0  0  0  0  0  0  0  0  0  0  0
    0.1640    0.4403   -0.7664 N   0  0  0  0  0  0  0  0  0  0  0  0
    1.5152    0.2069   -0.3538 C   0  0  0  0  0  0  0  0  0  0  0  0
    2.1289   -0.9817   -0.6533 C   0  0  0  0  0  0  0  0  0  0  0  0
    1.3488   -1.9983   -1.4094 C   0  0  0  0  0  0  0  0  0  0  0  0
    3.4263   -1.1858   -0.2480 C   0  0  0  0  0  0  0  0  0  0  0  0
    4.1224   -0.2406    0.4438 C   0  0  0  0  0  0  0  0  0  0  0  0
    3.5166    0.9557    0.7498 C   0  0  0  0  0  0  0  0  0  0  0  0
    2.2114    1.1722    0.3472 C   0  0  0  0  0  0  0  0  0  0  0  0
    1.5420    2.4572    0.6687 C   0  0  0  0  0  0  0  0  0  0  0  0
  1  2  1  0
  2  3  1  0
  3  4  1  6
  3  5  1  0
  5  6  1  0
  6  7  2  0
  6  8  1  0
  8  9  1  0
  9 10  2  0
 10 11  1  0
 10 12  1  0
 12 13  2  0
 13 14  1  0
 14 15  2  0
 15 16  1  0
 15  9  1  0
M  END
>  <zinc_id>  (10) 
ZINC000039245192

>  <smiles>  (10) 
CC[C@@H](N)CC(=O)Nc1c(C)cccc1C

$$$$

     RDKit          3D

 16 16  0  0  0  0  0  0  0  0999 V2000
    5.0073    0.0445    0.1257 C   0  0  0  0  0  0  0  0  0  0  0  0
    4.6318   -0.5963    0.0143 C   0  0  0  0  0  0  0  0  0  0  0  0
    3.1962   -0.7915    0.8321 C   0  0  2  0  0  0  0  0  0  0  0  0
    2.9448   -2.2325    0.1995 N   0  0  0  0  0  0  0  0  0  0  0  0
    2.3229   -0.0262   -0.3445 C   0  0  0  0  0  0  0  0  0  0  0  0
    0.9384   -0.0621    0.1554 C   0  0  0  0  0  0  0  0  0  0  0  0
    0.6664   -0.5889    1.2382 O   0  0  0  0  0  0  0  0  0  0  0  0
   -0.1509    0.5016   -0.5723 N   0  0  0  0  0  0  0  0  0  0  0  0
   -1.4816    0.4833   -0.1223 C   0  0  0  0  0  0  0  0  0  0  0  0
   -1.9685    1.5076    0.6457 C   0  0  0  0  0  0  0  0  0  0  0  0
   -1.0908    2.6373    1.0029 C   0  0  0  0  0  0  0  0  0  0  0  0
   -3.2805    1.5236    1.1092 C   0  0  0  0  0  0  0  0  0  0  0  0
   -4.0630    0.4498    0.7518 C   0  0  0  0  0  0  0  0  0  0  0  0
   -3.6017   -0.5897   -0.0162 C   0  0  0  0  0  0  0  0  0  0  0  0
   -2.2931   -0.5686   -0.4569 C   0  0  0  0  0  0  0  0  0  0  0  0
   -1.7777   -1.6918   -1.2925 C   0  0  0  0  0  0  0  0  0  0  0  0
  1  2  1  0
  2  3  1  0
  3  4  1  6
  3  5  1  0
  5  6  1  0
  6  7  2  0
  6  8  1  0
  8  9  1  0
  9 10  2  0
 10 11  1  0
 10 12  1  0
 12 13  2  0
 13 14  1  0
 14 15  2  0
 15 16  1  0
 15  9  1  0
M  END
>  <zinc_id>  (11) 
ZINC000039245191

>  <smiles>  (11) 
CC[C@H](N)CC(=O)Nc1c(C)cccc1C

$$$$

     RDKit          3D

 16 16  0  0  0  0  0  0  0  0999 V2000
    5.6954   -0.9079   -0.3787 C   0  0  0  0  0  0  0  0  0  0  0  0
    4.6034   -0.0074   -0.3141 O   0  0  0  0  0  0  0  0  0  0  0  0
    3.2964   -0.4612   -0.2221 C   0  0  0  0  0  0  0  0  0  0  0  0
    3.1167   -1.6991   -0.1983 O   0  0  0  0  0  0  0  0  0  0  0  0
    2.2233    0.5417   -0.1597 C   0  0  0  0  0  0  0  0  0  0  0  0
    0.8798   -0.0403   -0.0640 C   0  0  0  0  0  0  0  0  0  0  0  0
    0.6231   -1.2690   -0.0349 O   0  0  0  0  0  0  0  0  0  0  0  0
   -0.2306    0.8450    0.0020 N   0  0  0  0  0  0  0  0  0  0  0  0
   -1.5443    0.3799    0.0947 C   0  0  0  0  0  0  0  0  0  0  0  0
   -2.2919    0.1318   -1.0260 C   0  0  0  0  0  0  0  0  0  0  0  0
   -1.6826    0.3654   -2.3458 C   0  0  0  0  0  0  0  0  0  0  0  0
   -3.6020   -0.3318   -0.9458 C   0  0  0  0  0  0  0  0  0  0  0  0
   -4.1597   -0.5462    0.2997 C   0  0  0  0  0  0  0  0  0  0  0  0
   -3.4298   -0.3045    1.4341 C   0  0  0  0  0  0  0  0  0  0  0  0
   -2.1241    0.1581    1.3148 C   0  0  0  0  0  0  0  0  0  0  0  0
   -1.3731    0.4059    2.5439 C   0  0  0  0  0  0  0  0  0  0  0  0
  1  2  1  0
  2  3  1  0
  3  4  2  0
  3  5  1  0
  5  6  1  0
  6  7  2  0
  6  8  1  0
  8  9  1  0
  9 10  2  0
 10 11  1  0
 10 12  1  0
 12 13  2  0
 13 14  1  0
 14 15  2  0
 15 16  1  0
 15  9  1  0
M  END
>  <zinc_id>  (12) 
ZINC000020113878

>  <smiles>  (12) 
COC(=O)CC(=O)Nc1c(C)cccc1C

$$$$

     RDKit          3D

 16 16  0  0  0  0  0  0  0  0999 V2000
   -1.9683    0.6452    2.0270 C   0  0  0  0  0  0  0  0  0  0  0  0
   -2.4067    0.5098    0.6379 C   0  0  0  0  0  0  0  0  0  0  0  0
   -3.5516    1.1382    0.2010 C   0  0  0  0  0  0  0  0  0  0  0  0
   -3.9497    0.9944   -1.1282 C   0  0  0  0  0  0  0  0  0  0  0  0
   -3.2151    0.2334   -2.0103 C   0  0  0  0  0  0  0  0  0  0  0  0
   -2.0666   -0.4016   -1.5869 C   0  0  0  0  0  0  0  0  0  0  0  0
   -1.2485   -1.2380   -2.5334 C   0  0  0  0  0  0  0  0  0  0  0  0
   -1.6932   -0.2444   -0.2678 C   0  0  0  0  0  0  0  0  0  0  0  0
   -0.4865   -0.9310    0.1136 N   0  0  0  0  0  0  0  0  0  0  0  0
    0.7888   -0.3083    0.0099 C   0  0  0  0  0  0  0  0  0  0  0  0
    0.8167    0.8712   -0.4307 O   0  0  0  0  0  0  0  0  0  0  0  0
    2.0003   -0.9554    0.3769 N   0  0  0  0  0  0  0  0  0  0  0  0
    3.2719   -0.3299    0.2718 C   0  0  0  0  0  0  0  0  0  0  0  0
    3.3053    0.8410   -0.1650 O   0  0  0  0  0  0  0  0  0  0  0  0
    4.5405   -0.9845    0.6475 C   0  0  0  0  0  0  0  0  0  0  0  0
    5.8628    0.1599    0.3524 Cl  0  0  0  0  0  0  0  0  0  0  0  0
  1  2  1  0
  2  3  2  0
  3  4  1  0
  4  5  2  0
  5  6  1  0
  6  7  1  0
  6  8  2  0
  8  9  1  0
  9 10  1  0
 10 11  2  0
 10 12  1  0
 12 13  1  0
 13 14  2  0
 13 15  1  0
 15 16  1  0
  8  2  1  0
M  END
>  <zinc_id>  (13) 
ZINC000028648624

>  <smiles>  (13) 
Cc1cccc(C)c1NC(=O)NC(=O)CCl

$$$$

     RDKit          3D

 16 16  0  0  0  0  0  0  0  0999 V2000
    4.9834   -1.2813   -0.3052 C   0  0  0  0  0  0  0  0  0  0  0  0
    4.6344    0.1812   -0.4948 C   0  0  0  0  0  0  0  0  0  0  0  0
    3.3304    0.5078    0.0245 N   0  0  0  0  0  0  0  0  0  0  0  0
    3.2821    0.4237    1.4477 C   0  0  0  0  0  0  0  0  0  0  0  0
    2.2707   -0.1720   -0.6743 C   0  0  0  0  0  0  0  0  0  0  0  0
    0.9346    0.1416   -0.1399 C   0  0  0  0  0  0  0  0  0  0  0  0
    0.7150    0.9197    0.8281 O   0  0  0  0  0  0  0  0  0  0  0  0
   -0.2103   -0.4610   -0.7380 N   0  0  0  0  0  0  0  0  0  0  0  0
   -1.5402   -0.2208   -0.2935 C   0  0  0  0  0  0  0  0  0  0  0  0
   -2.2312    0.8349   -0.8599 C   0  0  0  0  0  0  0  0  0  0  0  0
   -1.5612    1.6688   -1.8928 C   0  0  0  0  0  0  0  0  0  0  0  0
   -3.5234    1.0740   -0.4383 C   0  0  0  0  0  0  0  0  0  0  0  0
   -4.1404    0.3014    0.5208 C   0  0  0  0  0  0  0  0  0  0  0  0
   -3.4261   -0.7565    1.0781 C   0  0  0  0  0  0  0  0  0  0  0  0
   -2.1347   -1.0172    0.6747 C   0  0  0  0  0  0  0  0  0  0  0  0
   -1.3831   -2.1441    1.2629 C   0  0  0  0  0  0  0  0  0  0  0  0
  1  2  1  0
  2  3  1  0
  3  4  1  0
  3  5  1  0
  5  6  1  0
  6  7  2  0
  6  8  1  0
  8  9  1  0
  9 10  2  0
 10 11  1  0
 10 12  1  0
 12 13  2  0
 13 14  1  0
 14 15  2  0
 15 16  1  0
 15  9  1  0
M  END
>  <zinc_id>  (14) 
ZINC000001854720

>  <smiles>  (14) 
CCN(C)CC(=O)Nc1c(C)cccc1C

$$$$

     RDKit          3D

 16 16  0  0  0  0  0  0  0  0999 V2000
   -4.8125    1.5150   -0.0638 C   0  0  0  0  0  0  0  0  0  0  0  0
   -4.7590    0.0245   -0.1911 C   0  0  0  0  0  0  0  0  0  0  0  0
   -3.3627   -0.4943   -0.1835 C   0  0  0  0  0  0  0  0  0  0  0  0
   -3.1320   -1.9579   -0.3019 C   0  0  0  0  0  0  0  0  0  0  0  0
   -2.3147    0.2792   -0.0768 C   0  0  0  0  0  0  0  0  0  0  0  0
   -0.9371   -0.1834   -0.0650 C   0  0  0  0  0  0  0  0  0  0  0  0
   -0.6042   -1.3864   -0.1570 O   0  0  0  0  0  0  0  0  0  0  0  0
    0.0852    0.7786    0.0571 N   0  0  0  0  0  0  0  0  0  0  0  0
    1.4657    0.4339    0.0792 C   0  0  0  0  0  0  0  0  0  0  0  0
    2.2368    0.3522   -1.0613 C   0  0  0  0  0  0  0  0  0  0  0  0
    1.5493    0.6478   -2.3615 C   0  0  0  0  0  0  0  0  0  0  0  0
    3.5731    0.0151   -1.0032 C   0  0  0  0  0  0  0  0  0  0  0  0
    4.2044   -0.2565    0.1924 C   0  0  0  0  0  0  0  0  0  0  0  0
    3.4376   -0.1763    1.3359 C   0  0  0  0  0  0  0  0  0  0  0  0
    2.0958    0.1621    1.2795 C   0  0  0  0  0  0  0  0  0  0  0  0
    1.2744    0.2465    2.5211 C   0  0  0  0  0  0  0  0  0  0  0  0
  1  2  1  0
  2  3  1  0
  3  4  1  0
  3  5  2  0
  5  6  1  0
  6  7  2  0
  6  8  1  0
  8  9  1  0
  9 10  2  0
 10 11  1  0
 10 12  1  0
 12 13  2  0
 13 14  1  0
 14 15  2  0
 15 16  1  0
 15  9  1  0
M  END
>  <zinc_id>  (15) 
ZINC000253458288

>  <smiles>  (15) 
CC/C(C)=C/C(=O)Nc1c(C)cccc1C

$$$$

     RDKit          3D

 16 16  0  0  0  0  0  0  0  0999 V2000
    5.4103   -0.5483   -1.4233 C   0  0  0  0  0  0  0  0  0  0  0  0
    4.1191   -0.9829   -0.8169 C   0  0  0  0  0  0  0  0  0  0  0  0
    3.0692    0.0800   -0.9045 C   0  0  0  0  0  0  0  0  0  0  0  0
    3.2739    1.2042   -1.4334 O   0  0  0  0  0  0  0  0  0  0  0  0
    1.7615   -0.1196   -0.3889 N   0  0  0  0  0  0  0  0  0  0  0  0
    0.7176    0.8339   -0.4337 C   0  0  0  0  0  0  0  0  0  0  0  0
    1.1370    2.2785   -1.1653 S   0  0  0  0  0  0  0  0  0  0  0  0
   -0.5055    0.6851    0.0330 N   0  0  0  0  0  0  0  0  0  0  0  0
   -1.5294    0.0605    0.6288 C   0  0  0  0  0  0  0  0  0  0  0  0
   -1.4616   -1.2161    1.1299 C   0  0  0  0  0  0  0  0  0  0  0  0
   -0.2111   -2.0132    1.0419 C   0  0  0  0  0  0  0  0  0  0  0  0
   -2.5290   -1.8544    1.7457 C   0  0  0  0  0  0  0  0  0  0  0  0
   -3.7286   -1.2185    1.8828 C   0  0  0  0  0  0  0  0  0  0  0  0
   -3.8394    0.0541    1.3977 C   0  0  0  0  0  0  0  0  0  0  0  0
   -2.7950    0.6849    0.7925 C   0  0  0  0  0  0  0  0  0  0  0  0
   -2.8891    2.0716    0.2550 C   0  0  0  0  0  0  0  0  0  0  0  0
  1  2  1  0
  2  3  1  0
  3  4  2  0
  3  5  1  0
  5  6  1  0
  6  7  2  0
  6  8  1  0
  8  9  1  0
  9 10  2  0
 10 11  1  0
 10 12  1  0
 12 13  2  0
 13 14  1  0
 14 15  2  0
 15 16  1  0
 15  9  1  0
M  END
>  <zinc_id>  (16) 
ZINC000000341960

>  <smiles>  (16) 
CCC(=O)NC(=S)Nc1c(C)cccc1C

$$$$

     RDKit          3D

 16 16  0  0  0  0  0  0  0  0999 V2000
    4.8296    0.6105    0.9980 C   0  0  0  0  0  0  0  0  0  0  0  0
    3.5115    0.6726    0.4665 O   0  0  0  0  0  0  0  0  0  0  0  0
    3.0148   -0.4501   -0.1667 C   0  0  0  0  0  0  0  0  0  0  0  0
    3.7004   -1.5034   -0.2760 O   0  0  0  0  0  0  0  0  0  0  0  0
    1.6701   -0.4855   -0.7462 C   0  0  0  0  0  0  0  0  0  0  0  0
    0.8526    0.5536   -0.6977 C   0  0  0  0  0  0  0  0  0  0  0  0
    1.3513    1.7764   -0.0259 C   0  0  0  0  0  0  0  0  0  0  0  0
   -0.4463    0.4734   -1.2749 N   0  0  0  0  0  0  0  0  0  0  0  0
   -1.5217    0.0896   -0.4145 C   0  0  0  0  0  0  0  0  0  0  0  0
   -1.8637   -1.2383   -0.2586 C   0  0  0  0  0  0  0  0  0  0  0  0
   -1.1055   -2.2826   -0.9939 C   0  0  0  0  0  0  0  0  0  0  0  0
   -2.8992   -1.6164    0.5690 C   0  0  0  0  0  0  0  0  0  0  0  0
   -3.6394   -0.6932    1.2774 C   0  0  0  0  0  0  0  0  0  0  0  0
   -3.2988    0.6346    1.1229 C   0  0  0  0  0  0  0  0  0  0  0  0
   -2.2623    1.0133    0.2943 C   0  0  0  0  0  0  0  0  0  0  0  0
   -1.8932    2.4455    0.1262 C   0  0  0  0  0  0  0  0  0  0  0  0
  1  2  1  0
  2  3  1  0
  3  4  2  0
  3  5  1  0
  5  6  2  0
  6  7  1  0
  6  8  1  0
  8  9  1  0
  9 10  2  0
 10 11  1  0
 10 12  1  0
 12 13  2  0
 13 14  1  0
 14 15  2  0
 15 16  1  0
 15  9  1  0
M  END
>  <zinc_id>  (17) 
ZINC000384194482

>  <smiles>  (17) 
COC(=O)/C=C(\C)Nc1c(C)cccc1C

$$$$

     RDKit          3D

 16 16  0  0  0  0  0  0  0  0999 V2000
    3.4432    1.8148    0.3068 C   0  0  0  0  0  0  0  0  0  0  0  0
    2.8463    0.4710    0.6693 C   0  0  0  0  0  0  0  0  0  0  0  0
    3.1467   -0.5301   -0.3649 C   0  0  0  0  0  0  0  0  0  0  0  0
    4.5590   -0.8431   -0.6666 C   0  0  0  0  0  0  0  0  0  0  0  0
    2.1951   -1.1356   -1.0091 C   0  0  0  0  0  0  0  0  0  0  0  0
    0.7726   -0.8909   -0.7785 C   0  0  0  0  0  0  0  0  0  0  0  0
   -0.0549   -1.5409   -1.4668 O   0  0  0  0  0  0  0  0  0  0  0  0
    0.2765    0.0271    0.1663 N   0  0  0  0  0  0  0  0  0  0  0  0
   -1.1399    0.2238    0.3472 C   0  0  0  0  0  0  0  0  0  0  0  0
   -1.7955   -0.5602    1.2701 C   0  0  0  0  0  0  0  0  0  0  0  0
   -1.0774   -1.5837    2.0644 C   0  0  0  0  0  0  0  0  0  0  0  0
   -3.1482   -0.4141    1.4829 C   0  0  0  0  0  0  0  0  0  0  0  0
   -3.8852    0.5296    0.7701 C   0  0  0  0  0  0  0  0  0  0  0  0
   -3.1938    1.2960   -0.1453 C   0  0  0  0  0  0  0  0  0  0  0  0
   -1.8513    1.1558   -0.3611 C   0  0  0  0  0  0  0  0  0  0  0  0
   -1.0932    1.9805   -1.3498 C   0  0  0  0  0  0  0  0  0  0  0  0
  1  2  1  0
  2  3  1  0
  3  4  1  0
  3  5  2  0
  5  6  1  0
  6  7  2  0
  6  8  1  0
  8  9  1  0
  9 10  2  0
 10 11  1  0
 10 12  1  0
 12 13  2  0
 13 14  1  0
 14 15  2  0
 15 16  1  0
 15  9  1  0
M  END
>  <zinc_id>  (18) 
ZINC000826637649

>  <smiles>  (18) 
CC/C(C)=C\C(=O)Nc1c(C)cccc1C

$$$$

     RDKit          3D

 16 16  0  0  0  0  0  0  0  0999 V2000
    4.9974    1.1678   -0.7192 C   0  0  0  0  0  0  0  0  0  0  0  0
    4.7513   -0.1903   -0.0661 C   0  0  0  0  0  0  0  0  0  0  0  0
    3.3919   -0.6757   -0.8799 C   0  0  1  0  0  0  0  0  0  0  0  0
    3.3130   -2.1012   -0.0465 C   0  0  0  0  0  0  0  0  0  0  0  0
    2.3856    0.0961    0.1585 C   0  0  0  0  0  0  0  0  0  0  0  0
    0.9910   -0.1814   -0.3567 C   0  0  0  0  0  0  0  0  0  0  0  0
    0.9135   -0.8764   -1.3714 O   0  0  0  0  0  0  0  0  0  0  0  0
   -0.1305    0.2896    0.2363 N   0  0  0  0  0  0  0  0  0  0  0  0
   -1.4768    0.2400    0.0556 C   0  0  0  0  0  0  0  0  0  0  0  0
   -2.2059    0.9597    1.0418 C   0  0  0  0  0  0  0  0  0  0  0  0
   -1.4736    1.6781    2.1440 C   0  0  0  0  0  0  0  0  0  0  0  0
   -3.5583    1.0303    1.0351 C   0  0  0  0  0  0  0  0  0  0  0  0
   -4.3032    0.4126    0.0780 C   0  0  0  0  0  0  0  0  0  0  0  0
   -3.6473   -0.2962   -0.8981 C   0  0  0  0  0  0  0  0  0  0  0  0
   -2.2342   -0.3732   -0.8959 C   0  0  0  0  0  0  0  0  0  0  0  0
   -1.7139   -1.1796   -2.0248 C   0  0  0  0  0  0  0  0  0  0  0  0
  1  2  1  0
  2  3  1  0
  3  4  1  1
  3  5  1  0
  5  6  1  0
  6  7  2  0
  6  8  1  0
  8  9  1  0
  9 10  2  0
 10 11  1  0
 10 12  1  0
 12 13  2  0
 13 14  1  0
 14 15  2  0
 15 16  1  0
 15  9  1  0
M  END
>  <zinc_id>  (19) 
ZINC000188438977

>  <smiles>  (19) 
CC[C@@H](C)CC(=O)Nc1c(C)cccc1C

$$$$

     RDKit          3D

 16 16  0  0  0  0  0  0  0  0999 V2000
    5.3889    0.4441    0.3962 C   0  0  0  0  0  0  0  0  0  0  0  0
    4.8307   -0.5675   -0.5148 C   0  0  0  0  0  0  0  0  0  0  0  0
    3.0584   -0.9407   -0.1318 S   0  0  0  0  0  0  0  0  0  0  0  0
    3.1361   -1.0465    1.4346 O   0  0  0  0  0  0  0  0  0  0  0  0
    2.2685    0.6961   -0.3439 C   0  0  0  0  0  0  0  0  0  0  0  0
    0.8246    0.6490   -0.0742 C   0  0  0  0  0  0  0  0  0  0  0  0
    0.3845    1.5120    0.7773 O   0  0  0  0  0  0  0  0  0  0  0  0
   -0.1206   -0.2241   -0.6351 N   0  0  0  0  0  0  0  0  0  0  0  0
   -1.4925   -0.1485   -0.2713 C   0  0  0  0  0  0  0  0  0  0  0  0
   -2.3090    0.6212   -1.0612 C   0  0  0  0  0  0  0  0  0  0  0  0
   -1.8011    1.3488   -2.2721 C   0  0  0  0  0  0  0  0  0  0  0  0
   -3.6662    0.7364   -0.7391 C   0  0  0  0  0  0  0  0  0  0  0  0
   -4.1562    0.0655    0.3799 C   0  0  0  0  0  0  0  0  0  0  0  0
   -3.2996   -0.6897    1.1351 C   0  0  0  0  0  0  0  0  0  0  0  0
   -1.9520   -0.8139    0.8261 C   0  0  0  0  0  0  0  0  0  0  0  0
   -1.0947   -1.6422    1.7275 C   0  0  0  0  0  0  0  0  0  0  0  0
  1  2  1  0
  3  2  1  6
  3  4  2  0
  3  5  1  0
  5  6  1  0
  6  7  2  0
  6  8  1  0
  8  9  1  0
  9 10  2  0
 10 11  1  0
 10 12  1  0
 12 13  2  0
 13 14  1  0
 14 15  2  0
 15 16  1  0
 15  9  1  0
M  END
>  <zinc_id>  (20) 
ZINC000034318618

>  <smiles>  (20) 
CC[S@@](=O)CC(=O)Nc1c(C)cccc1C

$$$$

     RDKit          3D

 16 16  0  0  0  0  0  0  0  0999 V2000
    4.6068    1.6696    1.6490 C   0  0  0  0  0  0  0  0  0  0  0  0
    4.6096    0.6402    0.5591 C   0  0  0  0  0  0  0  0  0  0  0  0
    3.3386   -0.3480    0.8658 C   0  0  2  0  0  0  0  0  0  0  0  0
    3.6355   -1.2879   -0.4420 C   0  0  0  0  0  0  0  0  0  0  0  0
    2.2668    0.6288    0.1217 C   0  0  0  0  0  0  0  0  0  0  0  0
    0.9435    0.0162    0.2104 C   0  0  0  0  0  0  0  0  0  0  0  0
    0.6648   -1.0699    0.7592 O   0  0  0  0  0  0  0  0  0  0  0  0
   -0.1499    0.7025   -0.3766 N   0  0  0  0  0  0  0  0  0  0  0  0
   -1.4828    0.2486   -0.3775 C   0  0  0  0  0  0  0  0  0  0  0  0
   -2.4161    0.5313    0.5933 C   0  0  0  0  0  0  0  0  0  0  0  0
   -2.0172    1.3771    1.7423 C   0  0  0  0  0  0  0  0  0  0  0  0
   -3.7151    0.0717    0.5645 C   0  0  0  0  0  0  0  0  0  0  0  0
   -4.1530   -0.7251   -0.4838 C   0  0  0  0  0  0  0  0  0  0  0  0
   -3.2349   -1.0213   -1.4682 C   0  0  0  0  0  0  0  0  0  0  0  0
   -1.9269   -0.5440   -1.4155 C   0  0  0  0  0  0  0  0  0  0  0  0
   -0.9698   -0.8898   -2.5016 C   0  0  0  0  0  0  0  0  0  0  0  0
  1  2  1  0
  2  3  1  0
  3  4  1  6
  3  5  1  0
  5  6  1  0
  6  7  2  0
  6  8  1  0
  8  9  1  0
  9 10  2  0
 10 11  1  0
 10 12  1  0
 12 13  2  0
 13 14  1  0
 14 15  2  0
 15 16  1  0
 15  9  1  0
M  END
>  <zinc_id>  (21) 
ZINC000188439003

>  <smiles>  (21) 
CC[C@H](C)CC(=O)Nc1c(C)cccc1C

$$$$

     RDKit          3D

 16 16  0  0  0  0  0  0  0  0999 V2000
    3.5006    1.8333    1.1607 C   0  0  0  0  0  0  0  0  0  0  0  0
    3.5517    1.0934   -0.0961 C   0  0  0  0  0  0  0  0  0  0  0  0
    3.7525   -0.4060    0.4369 C   0  0  2  0  0  0  0  0  0  0  0  0
    3.8684   -1.0875   -1.0684 C   0  0  0  0  0  0  0  0  0  0  0  0
    2.3239   -0.8607    0.6451 N   0  0  0  0  0  0  0  0  0  0  0  0
    1.2130   -0.1733    0.1338 C   0  0  0  0  0  0  0  0  0  0  0  0
    1.4000    0.8367   -0.5222 O   0  0  0  0  0  0  0  0  0  0  0  0
   -0.0935   -0.5636    0.3177 N   0  0  0  0  0  0  0  0  0  0  0  0
   -1.3436   -0.2091    0.0582 C   0  0  0  0  0  0  0  0  0  0  0  0
   -1.8692    0.9029   -0.5348 C   0  0  0  0  0  0  0  0  0  0  0  0
   -1.1272    2.0525   -1.0968 C   0  0  0  0  0  0  0  0  0  0  0  0
   -3.2657    1.0597   -0.6714 C   0  0  0  0  0  0  0  0  0  0  0  0
   -4.1337    0.1206   -0.2225 C   0  0  0  0  0  0  0  0  0  0  0  0
   -3.6299   -0.9960    0.3695 C   0  0  0  0  0  0  0  0  0  0  0  0
   -2.2917   -1.1575    0.5061 C   0  0  0  0  0  0  0  0  0  0  0  0
   -1.8556   -2.4454    1.1699 C   0  0  0  0  0  0  0  0  0  0  0  0
  1  2  1  0
  2  3  1  0
  3  4  1  6
  3  5  1  0
  5  6  1  0
  6  7  2  0
  6  8  1  0
  8  9  1  0
  9 10  2  0
 10 11  1  0
 10 12  1  0
 12 13  2  0
 13 14  1  0
 14 15  2  0
 15 16  1  0
 15  9  1  0
M  END
>  <zinc_id>  (22) 
ZINC000048474057

>  <smiles>  (22) 
CC[C@H](C)NC(=O)Nc1c(C)cccc1C

$$$$

     RDKit          3D

 16 16  0  0  0  0  0  0  0  0999 V2000
   -3.0517    1.4915   -1.1018 C   0  0  0  0  0  0  0  0  0  0  0  0
   -3.9418    0.6195   -0.5915 C   0  0  0  0  0  0  0  0  0  0  0  0
   -3.5361   -1.1143   -0.4980 S   0  0  0  0  0  0  0  0  0  0  0  0
   -4.6809   -1.6998    0.3838 O   0  0  0  0  0  0  0  0  0  0  0  0
   -2.0966   -1.2788    0.5283 C   0  0  0  0  0  0  0  0  0  0  0  0
   -0.8691   -0.6412    0.0859 C   0  0  0  0  0  0  0  0  0  0  0  0
   -0.6321   -0.0829   -1.0038 O   0  0  0  0  0  0  0  0  0  0  0  0
    0.2288   -0.6498    1.0231 N   0  0  0  0  0  0  0  0  0  0  0  0
    1.4619   -0.0429    0.6550 C   0  0  0  0  0  0  0  0  0  0  0  0
    2.4438   -0.7655    0.0148 C   0  0  0  0  0  0  0  0  0  0  0  0
    2.2450   -2.2108   -0.3138 C   0  0  0  0  0  0  0  0  0  0  0  0
    3.6101   -0.1229   -0.3114 C   0  0  0  0  0  0  0  0  0  0  0  0
    3.7776    1.1921   -0.0055 C   0  0  0  0  0  0  0  0  0  0  0  0
    2.8113    1.9251    0.6309 C   0  0  0  0  0  0  0  0  0  0  0  0
    1.6382    1.2908    0.9629 C   0  0  0  0  0  0  0  0  0  0  0  0
    0.5917    2.0898    1.6559 C   0  0  0  0  0  0  0  0  0  0  0  0
  1  2  1  0
  3  2  1  1
  3  4  2  0
  3  5  1  0
  5  6  1  0
  6  7  2  0
  6  8  1  0
  8  9  1  0
  9 10  2  0
 10 11  1  0
 10 12  1  0
 12 13  2  0
 13 14  1  0
 14 15  2  0
 15 16  1  0
 15  9  1  0
M  END
>  <zinc_id>  (23) 
ZINC000034318619

>  <smiles>  (23) 
CC[S@](=O)CC(=O)Nc1c(C)cccc1C

$$$$

     RDKit          3D

 16 16  0  0  0  0  0  0  0  0999 V2000
   -3.8944   -2.1986   -1.3491 C   0  0  0  0  0  0  0  0  0  0  0  0
   -2.8975   -1.2168   -0.9310 C   0  0  0  0  0  0  0  0  0  0  0  0
   -3.5855   -0.5268    0.3900 C   0  0  1  0  0  0  0  0  0  0  0  0
   -3.6683   -1.9719    1.2144 C   0  0  0  0  0  0  0  0  0  0  0  0
   -2.2866   -0.0675    1.0751 N   0  0  0  0  0  0  0  0  0  0  0  0
   -1.0719    0.0364    0.4127 C   0  0  0  0  0  0  0  0  0  0  0  0
   -1.0227   -0.2589   -0.8123 O   0  0  0  0  0  0  0  0  0  0  0  0
    0.1552    0.4597    1.0169 N   0  0  0  0  0  0  0  0  0  0  0  0
    1.3856    0.5879    0.3601 C   0  0  0  0  0  0  0  0  0  0  0  0
    1.7689    1.8280   -0.1110 C   0  0  0  0  0  0  0  0  0  0  0  0
    0.8676    2.9920    0.0863 C   0  0  0  0  0  0  0  0  0  0  0  0
    2.9918    2.0118   -0.7713 C   0  0  0  0  0  0  0  0  0  0  0  0
    3.7956    0.9436   -0.9406 C   0  0  0  0  0  0  0  0  0  0  0  0
    3.4490   -0.3145   -0.4848 C   0  0  0  0  0  0  0  0  0  0  0  0
    2.2177   -0.4739    0.1741 C   0  0  0  0  0  0  0  0  0  0  0  0
    1.7955   -1.8306    0.6705 C   0  0  0  0  0  0  0  0  0  0  0  0
  1  2  1  0
  2  3  1  0
  3  4  1  1
  3  5  1  0
  5  6  1  0
  6  7  2  0
  6  8  1  0
  8  9  1  0
  9 10  2  0
 10 11  1  0
 10 12  1  0
 12 13  2  0
 13 14  1  0
 14 15  2  0
 15 16  1  0
 15  9  1  0
M  END
>  <zinc_id>  (24) 
ZINC000048474055

>  <smiles>  (24) 
CC[C@@H](C)NC(=O)Nc1c(C)cccc1C

$$$$
