
     RDKit          3D

 16 16  0  0  0  0  0  0  0  0999 V2000
    6.4504   -0.4511    0.4268 C   0  0  0  0  0  0  0  0  0  0  0  0
    5.1878    0.0300   -0.2564 C   0  0  0  0  0  0  0  0  0  0  0  0
    5.2156    1.5231   -0.5143 C   0  0  0  0  0  0  0  0  0  0  0  0
    4.0095   -0.3603    0.4759 N   0  0  0  0  0  0  0  0  0  0  0  0
    2.7139   -0.0249    0.0330 C   0  0  0  0  0  0  0  0  0  0  0  0
    2.5514    0.8287   -1.3472 S   0  0  0  0  0  0  0  0  0  0  0  0
    1.5644   -0.4142    0.7613 N   0  0  0  0  0  0  0  0  0  0  0  0
    0.2837   -0.0755    0.3118 N   0  0  0  0  0  0  0  0  0  0  0  0
   -0.7533   -0.6511    0.7911 C   0  0  0  0  0  0  0  0  0  0  0  0
   -2.1131   -0.3674    0.3892 C   0  0  0  0  0  0  0  0  0  0  0  0
   -2.4655    0.5612   -0.5635 C   0  0  0  0  0  0  0  0  0  0  0  0
   -3.7730    0.8109   -0.9271 C   0  0  0  0  0  0  0  0  0  0  0  0
   -4.7966    0.1123   -0.3247 C   0  0  0  0  0  0  0  0  0  0  0  0
   -6.4840    0.3689   -0.7287 Cl  0  0  0  0  0  0  0  0  0  0  0  0
   -4.4564   -0.8215    0.6320 C   0  0  0  0  0  0  0  0  0  0  0  0
   -3.1348   -1.0692    0.9949 C   0  0  0  0  0  0  0  0  0  0  0  0
  1  2  1  0
  2  3  1  0
  2  4  1  0
  4  5  1  0
  5  6  2  0
  5  7  1  0
  7  8  1  0
  8  9  2  0
  9 10  1  0
 10 11  2  0
 11 12  1  0
 12 13  2  0
 13 14  1  0
 13 15  1  0
 15 16  2  0
 16 10  1  0
M  END
>  <zinc_id>  (1) 
ZINC000006358338

>  <smiles>  (1) 
CC(C)NC(=S)N/N=C/c1ccc(Cl)cc1

$$$$
