
     RDKit          3D

 17 17  0  0  0  0  0  0  0  0999 V2000
    4.8547    1.6713    0.0901 C   0  0  0  0  0  0  0  0  0  0  0  0
    4.6324    0.9978   -0.1405 C   0  0  0  0  0  0  0  0  0  0  0  0
    5.1911   -0.3959    0.2323 C   0  0  0  0  0  0  0  0  0  0  0  0
    3.7038    0.7219   -1.2908 N   0  0  0  0  0  0  0  0  0  0  0  0
    2.4518    0.2425   -1.2002 C   0  0  0  0  0  0  0  0  0  0  0  0
    2.2663    0.1703    0.2595 O   0  0  0  0  0  0  0  0  0  0  0  0
    1.2582   -0.2121   -1.6462 N   0  0  0  0  0  0  0  0  0  0  0  0
    0.1884   -0.6354   -0.5084 C   0  0  2  0  0  0  0  0  0  0  0  0
   -0.2343   -1.9987   -1.3157 C   0  0  0  0  0  0  0  0  0  0  0  0
   -0.8648    0.2294   -1.1131 O   0  0  0  0  0  0  0  0  0  0  0  0
   -1.9692    0.3912   -0.3307 C   0  0  0  0  0  0  0  0  0  0  0  0
   -1.8814   -0.2789    0.9741 C   0  0  0  0  0  0  0  0  0  0  0  0
   -2.9251   -0.1391    1.8114 C   0  0  0  0  0  0  0  0  0  0  0  0
   -4.0638    0.5463    1.6266 C   0  0  0  0  0  0  0  0  0  0  0  0
   -5.4067    0.5970    2.7299 Cl  0  0  0  0  0  0  0  0  0  0  0  0
   -4.1061    1.1593    0.4002 C   0  0  0  0  0  0  0  0  0  0  0  0
   -3.0953    1.0930   -0.5787 C   0  0  0  0  0  0  0  0  0  0  0  0
  1  2  1  0
  2  3  1  0
  2  4  1  0
  4  5  1  0
  5  6  2  0
  5  7  1  0
  7  8  1  0
  8  9  1  6
  8 10  1  0
 10 11  1  0
 11 12  2  0
 12 13  1  0
 13 14  2  0
 14 15  1  0
 14 16  1  0
 16 17  2  0
 17 11  1  0
M  END
>  <zinc_id>  (1) 
ZINC000217294518

>  <smiles>  (1) 
CC(C)NC(=O)N[C@H](C)Oc1ccc(Cl)cc1

$$$$
