
     RDKit          3D

 16 16  0  0  0  0  0  0  0  0999 V2000
    6.2936   -0.8690   -0.5574 C   0  0  0  0  0  0  0  0  0  0  0  0
    4.9122   -0.3457   -0.9145 C   0  0  0  0  0  0  0  0  0  0  0  0
    4.8167    1.0957   -0.4348 C   0  0  0  0  0  0  0  0  0  0  0  0
    3.9415   -1.1992   -0.2550 N   0  0  0  0  0  0  0  0  0  0  0  0
    2.5389   -0.9922   -0.3772 C   0  0  0  0  0  0  0  0  0  0  0  0
    2.1050   -0.0481   -1.1059 N   0  0  0  0  0  0  0  0  0  0  0  0
    1.4389   -2.0749    0.5043 S   0  0  0  0  0  0  0  0  0  0  0  0
   -0.2609   -1.5709    0.1579 C   0  0  0  0  0  0  0  0  0  0  0  0
   -0.5057   -0.1990    0.7533 C   0  0  0  0  0  0  0  0  0  0  0  0
   -1.8848    0.2810    0.5067 C   0  0  0  0  0  0  0  0  0  0  0  0
   -2.2014    1.0130   -0.6162 C   0  0  0  0  0  0  0  0  0  0  0  0
   -3.4749    1.4695   -0.8653 C   0  0  0  0  0  0  0  0  0  0  0  0
   -4.4906    1.1999    0.0234 C   0  0  0  0  0  0  0  0  0  0  0  0
   -6.1337    1.7530   -0.2362 Cl  0  0  0  0  0  0  0  0  0  0  0  0
   -4.1850    0.4690    1.1490 C   0  0  0  0  0  0  0  0  0  0  0  0
   -2.9099    0.0180    1.3877 C   0  0  0  0  0  0  0  0  0  0  0  0
  1  2  1  0
  2  3  1  0
  2  4  1  0
  4  5  1  0
  5  6  2  0
  5  7  1  0
  7  8  1  0
  8  9  1  0
  9 10  1  0
 10 11  2  0
 11 12  1  0
 12 13  2  0
 13 14  1  0
 13 15  1  0
 15 16  2  0
 16 10  1  0
M  END
>  <zinc_id>  (1) 
ZINC000719145948

>  <smiles>  (1) 
CC(C)NC(=N)SCCc1ccc(Cl)cc1

$$$$
