
     RDKit          3D

 17 17  0  0  0  0  0  0  0  0999 V2000
   -4.4361    0.8220    0.9181 C   0  0  0  0  0  0  0  0  0  0  0  0
   -4.5982   -0.2828   -0.1069 C   0  0  0  0  0  0  0  0  0  0  0  0
   -6.0567   -0.4535   -0.3919 C   0  0  0  0  0  0  0  0  0  0  0  0
   -3.8730    0.1035   -1.2628 O   0  0  0  0  0  0  0  0  0  0  0  0
   -2.5075    0.3233   -1.1513 C   0  0  0  0  0  0  0  0  0  0  0  0
   -1.7905    1.1998   -2.0093 N   0  0  0  0  0  0  0  0  0  0  0  0
   -1.8658   -0.3024   -0.2210 N   0  0  0  0  0  0  0  0  0  0  0  0
   -0.4701   -0.1174   -0.0596 C   0  0  0  0  0  0  0  0  0  0  0  0
   -0.0374    0.9522    0.7622 N   0  0  0  0  0  0  0  0  0  0  0  0
    0.4228   -0.8617   -0.6140 N   0  0  0  0  0  0  0  0  0  0  0  0
    1.7959   -0.5750   -0.3754 C   0  0  0  0  0  0  0  0  0  0  0  0
    2.2908   -0.3603    0.8962 C   0  0  0  0  0  0  0  0  0  0  0  0
    3.6224   -0.0813    1.1302 C   0  0  0  0  0  0  0  0  0  0  0  0
    4.5270   -0.0040    0.0916 C   0  0  0  0  0  0  0  0  0  0  0  0
    6.2277    0.3504    0.3661 Cl  0  0  0  0  0  0  0  0  0  0  0  0
    4.0403   -0.2171   -1.1795 C   0  0  0  0  0  0  0  0  0  0  0  0
    2.7082   -0.4957   -1.4087 C   0  0  0  0  0  0  0  0  0  0  0  0
  1  2  1  0
  2  3  1  0
  2  4  1  0
  4  5  1  0
  5  6  1  0
  5  7  2  0
  7  8  1  0
  8  9  1  0
  8 10  2  0
 10 11  1  0
 11 12  2  0
 12 13  1  0
 13 14  2  0
 14 15  1  0
 14 16  1  0
 16 17  2  0
 17 11  1  0
M  END
>  <zinc_id>  (1) 
ZINC000005760662

>  <smiles>  (1) 
CC(C)O/C(N)=N/C(N)=N/c1ccc(Cl)cc1

$$$$
