
     RDKit          3D

 17 17  0  0  0  0  0  0  0  0999 V2000
   -4.5433   -0.9546   -1.5129 C   0  0  0  0  0  0  0  0  0  0  0  0
   -3.8808   -1.3318   -0.6658 C   0  0  0  0  0  0  0  0  0  0  0  0
   -4.3582   -1.7756    0.6943 C   0  0  0  0  0  0  0  0  0  0  0  0
   -2.4308   -1.0891   -0.6217 N   0  0  0  0  0  0  0  0  0  0  0  0
   -1.9194    0.2358   -0.5971 C   0  0  0  0  0  0  0  0  0  0  0  0
   -2.7006    1.1490   -0.1573 N   0  0  0  0  0  0  0  0  0  0  0  0
   -0.6115    0.5886   -1.0281 N   0  0  0  0  0  0  0  0  0  0  0  0
   -0.1475    2.0129   -0.5382 C   0  0  2  0  0  0  0  0  0  0  0  0
    1.3179    1.9130   -1.2755 C   0  0  0  0  0  0  0  0  0  0  0  0
    0.3207    1.4713    0.9340 C   0  0  0  0  0  0  0  0  0  0  0  0
    1.3384    0.4855    0.8189 C   0  0  0  0  0  0  0  0  0  0  0  0
    1.1236   -0.8856    0.6967 C   0  0  0  0  0  0  0  0  0  0  0  0
    2.1543   -1.7920    0.5925 C   0  0  0  0  0  0  0  0  0  0  0  0
    3.4517   -1.3728    0.6052 C   0  0  0  0  0  0  0  0  0  0  0  0
    4.4889   -2.2497    0.5035 F   0  0  0  0  0  0  0  0  0  0  0  0
    3.7147   -0.0239    0.7243 C   0  0  0  0  0  0  0  0  0  0  0  0
    2.6819    0.8669    0.8272 C   0  0  0  0  0  0  0  0  0  0  0  0
  1  2  1  0
  2  3  1  0
  2  4  1  0
  4  5  1  0
  5  6  2  0
  5  7  1  0
  7  8  1  0
  8  9  1  6
  8 10  1  0
 10 11  1  0
 11 12  2  0
 12 13  1  0
 13 14  2  0
 14 15  1  0
 14 16  1  0
 16 17  2  0
 17 11  1  0
M  END
>  <zinc_id>  (1) 
ZINC000062034272

>  <smiles>  (1) 
CC(C)NC(=N)N[C@H](C)Cc1ccc(F)cc1

$$$$
