
     RDKit          3D

 17 17  0  0  0  0  0  0  0  0999 V2000
    5.9755   -0.2254    0.2520 C   0  0  0  0  0  0  0  0  0  0  0  0
    4.6110   -0.3118   -0.1901 C   0  0  0  0  0  0  0  0  0  0  0  0
    4.2145   -1.6582   -0.6999 C   0  0  0  0  0  0  0  0  0  0  0  0
    3.7212    0.1298    0.8769 N   0  0  0  0  0  0  0  0  0  0  0  0
    2.3147    0.1585    0.7423 C   0  0  0  0  0  0  0  0  0  0  0  0
    1.7729   -0.5468   -0.1852 N   0  0  0  0  0  0  0  0  0  0  0  0
    1.5569    0.9085    1.5670 N   0  0  0  0  0  0  0  0  0  0  0  0
    0.0243    1.1769    1.3152 C   0  0  1  0  0  0  0  0  0  0  0  0
    0.1549    1.8853   -0.1829 C   0  0  0  0  0  0  0  0  0  0  0  0
   -0.2574   -0.3289    0.6844 C   0  0  0  0  0  0  0  0  0  0  0  0
   -1.7102   -0.2584    0.3766 C   0  0  0  0  0  0  0  0  0  0  0  0
   -2.1486    0.1804   -0.8474 C   0  0  0  0  0  0  0  0  0  0  0  0
   -3.4897    0.2639   -1.1815 C   0  0  0  0  0  0  0  0  0  0  0  0
   -4.3872   -0.1208   -0.2114 C   0  0  0  0  0  0  0  0  0  0  0  0
   -5.7080   -0.0563   -0.4923 F   0  0  0  0  0  0  0  0  0  0  0  0
   -3.9996   -0.5640    1.0202 C   0  0  0  0  0  0  0  0  0  0  0  0
   -2.6451   -0.6328    1.3156 C   0  0  0  0  0  0  0  0  0  0  0  0
  1  2  1  0
  2  3  1  0
  2  4  1  0
  4  5  1  0
  5  6  2  0
  5  7  1  0
  7  8  1  0
  8  9  1  6
  8 10  1  0
 10 11  1  0
 11 12  2  0
 12 13  1  0
 13 14  2  0
 14 15  1  0
 14 16  1  0
 16 17  2  0
 17 11  1  0
M  END
>  <zinc_id>  (1) 
ZINC000062034271

>  <smiles>  (1) 
CC(C)NC(=N)N[C@@H](C)Cc1ccc(F)cc1

$$$$
