
     RDKit          3D

 16 16  0  0  0  0  0  0  0  0999 V2000
    3.9234    2.1310   -0.8153 C   0  0  0  0  0  0  0  0  0  0  0  0
    2.8557    1.1659   -0.3531 C   0  0  0  0  0  0  0  0  0  0  0  0
    2.5963    1.2746    1.1296 C   0  0  0  0  0  0  0  0  0  0  0  0
    3.2362   -0.1537   -0.7557 N   0  0  0  0  0  0  0  0  0  0  0  0
    2.4022   -1.2537   -0.4443 C   0  0  0  0  0  0  0  0  0  0  0  0
    2.8124   -2.7860   -0.8941 S   0  0  0  0  0  0  0  0  0  0  0  0
    1.1977   -1.0193    0.2664 N   0  0  0  0  0  0  0  0  0  0  0  0
    0.3713   -2.0748    0.5800 N   0  0  0  0  0  0  0  0  0  0  0  0
   -0.8982   -2.0576    0.6618 C   0  0  0  0  0  0  0  0  0  0  0  0
   -1.6317   -0.8253    0.4107 C   0  0  0  0  0  0  0  0  0  0  0  0
   -1.0504    0.3772    0.0778 C   0  0  0  0  0  0  0  0  0  0  0  0
   -1.7793    1.5229   -0.1524 C   0  0  0  0  0  0  0  0  0  0  0  0
   -3.1506    1.4416   -0.0397 C   0  0  0  0  0  0  0  0  0  0  0  0
   -4.1240    2.8681   -0.3219 Cl  0  0  0  0  0  0  0  0  0  0  0  0
   -3.7636    0.2527    0.2920 C   0  0  0  0  0  0  0  0  0  0  0  0
   -2.9974   -0.8636    0.5126 C   0  0  0  0  0  0  0  0  0  0  0  0
  1  2  1  0
  2  3  1  0
  2  4  1  0
  4  5  1  0
  5  6  2  0
  5  7  1  0
  7  8  1  0
  8  9  2  3
  9 10  1  0
 10 11  2  0
 11 12  1  0
 12 13  2  0
 13 14  1  0
 13 15  1  0
 15 16  2  0
 16 10  1  0
M  END
>  <zinc_id>  (1) 
ZINC001317702945

>  <smiles>  (1) 
CC(C)NC(=S)NN=Cc1ccc(Cl)cc1

$$$$
