
     RDKit          3D

 17 17  0  0  0  0  0  0  0  0999 V2000
    3.9906    0.9012    1.1683 C   0  0  0  0  0  0  0  0  0  0  0  0
    2.7910    1.5758    0.4889 C   0  0  0  0  0  0  0  0  0  0  0  0
    3.4047    2.6453   -0.4242 C   0  0  0  0  0  0  0  0  0  0  0  0
    2.0946    0.6426   -0.3680 N   0  0  0  0  0  0  0  0  0  0  0  0
    1.5064   -0.5615    0.1063 C   0  0  0  0  0  0  0  0  0  0  0  0
    1.4170   -0.7061    1.3667 N   0  0  0  0  0  0  0  0  0  0  0  0
    1.0606   -1.6059   -0.7171 N   0  0  0  0  0  0  0  0  0  0  0  0
    0.1693   -2.5711   -0.1826 C   0  0  0  0  0  0  0  0  0  0  0  0
    0.4878   -4.0132   -0.1377 N   0  0  0  0  0  0  0  0  0  0  0  0
   -0.9304   -2.1205    0.1820 N   0  0  0  0  0  0  0  0  0  0  0  0
   -1.4319   -0.8438    0.1444 C   0  0  0  0  0  0  0  0  0  0  0  0
   -1.4719    0.0765   -0.8669 C   0  0  0  0  0  0  0  0  0  0  0  0
   -2.0788    1.2843   -0.7766 C   0  0  0  0  0  0  0  0  0  0  0  0
   -2.7129    1.6698    0.3778 C   0  0  0  0  0  0  0  0  0  0  0  0
   -3.4858    3.2367    0.4573 Cl  0  0  0  0  0  0  0  0  0  0  0  0
   -2.7146    0.7900    1.4464 C   0  0  0  0  0  0  0  0  0  0  0  0
   -2.0957   -0.4001    1.3043 C   0  0  0  0  0  0  0  0  0  0  0  0
  1  2  1  0
  2  3  1  0
  2  4  1  0
  4  5  1  0
  5  6  2  0
  5  7  1  0
  7  8  1  0
  8  9  1  0
  8 10  2  0
 10 11  1  0
 11 12  2  0
 12 13  1  0
 13 14  2  0
 14 15  1  0
 14 16  1  0
 16 17  2  0
 17 11  1  0
M  END
>  <zinc_id>  (1) 
ZINC000095452610

>  <smiles>  (1) 
CC(C)NC(=N)N/C(N)=N\c1ccc(Cl)cc1

$$$$

     RDKit          3D

 17 17  0  0  0  0  0  0  0  0999 V2000
    4.4009   -1.4421    0.2782 C   0  0  0  0  0  0  0  0  0  0  0  0
    4.6604   -0.0009   -0.0321 C   0  0  0  0  0  0  0  0  0  0  0  0
    6.0927    0.4040    0.0607 C   0  0  0  0  0  0  0  0  0  0  0  0
    3.8065    0.8324    0.6995 O   0  0  0  0  0  0  0  0  0  0  0  0
    2.4304    0.7672    0.5865 C   0  0  0  0  0  0  0  0  0  0  0  0
    1.5589    1.7193    1.1851 N   0  0  0  0  0  0  0  0  0  0  0  0
    1.9013   -0.1940   -0.0887 N   0  0  0  0  0  0  0  0  0  0  0  0
    0.5013   -0.3451   -0.2610 C   0  0  0  0  0  0  0  0  0  0  0  0
    0.0504   -1.5087   -0.9438 N   0  0  0  0  0  0  0  0  0  0  0  0
   -0.3813    0.4880    0.1527 N   0  0  0  0  0  0  0  0  0  0  0  0
   -1.7622    0.2308   -0.0780 C   0  0  0  0  0  0  0  0  0  0  0  0
   -2.2543   -0.1383   -1.3129 C   0  0  0  0  0  0  0  0  0  0  0  0
   -3.6001   -0.3888   -1.5372 C   0  0  0  0  0  0  0  0  0  0  0  0
   -4.5039   -0.2690   -0.4916 C   0  0  0  0  0  0  0  0  0  0  0  0
   -6.1800   -0.5963   -0.8378 Cl  0  0  0  0  0  0  0  0  0  0  0  0
   -4.0388    0.0987    0.7540 C   0  0  0  0  0  0  0  0  0  0  0  0
   -2.6822    0.3429    0.9457 C   0  0  0  0  0  0  0  0  0  0  0  0
  1  2  1  0
  2  3  1  0
  2  4  1  0
  4  5  1  0
  5  6  1  0
  5  7  2  0
  7  8  1  0
  8  9  1  0
  8 10  2  0
 10 11  1  0
 11 12  2  0
 12 13  1  0
 13 14  2  0
 14 15  1  0
 14 16  1  0
 16 17  2  0
 17 11  1  0
M  END
>  <zinc_id>  (2) 
ZINC000005760662

>  <smiles>  (2) 
CC(C)O/C(N)=N/C(N)=N/c1ccc(Cl)cc1

$$$$

     RDKit          3D

 16 16  0  0  0  0  0  0  0  0999 V2000
    5.0211   -0.5513    0.2579 C   0  0  0  0  0  0  0  0  0  0  0  0
    3.9074   -0.5675   -0.7315 C   0  0  0  0  0  0  0  0  0  0  0  0
    3.6156   -1.8890   -1.3575 C   0  0  0  0  0  0  0  0  0  0  0  0
    2.7718    0.1735   -0.2919 N   0  0  0  0  0  0  0  0  0  0  0  0
    2.0236   -0.0797    0.8911 C   0  0  0  0  0  0  0  0  0  0  0  0
    2.4024   -1.0636    1.6265 N   0  0  0  0  0  0  0  0  0  0  0  0
    0.6043    0.9315    1.3440 S   0  0  0  0  0  0  0  0  0  0  0  0
    0.3164    2.2134    0.0902 C   0  0  0  0  0  0  0  0  0  0  0  0
   -0.1142    1.5594   -1.2055 C   0  0  0  0  0  0  0  0  0  0  0  0
   -1.3773    0.8146   -0.8979 C   0  0  0  0  0  0  0  0  0  0  0  0
   -1.3306   -0.5004   -0.4811 C   0  0  0  0  0  0  0  0  0  0  0  0
   -2.4919   -1.1862   -0.1934 C   0  0  0  0  0  0  0  0  0  0  0  0
   -3.7355   -0.5723   -0.3153 C   0  0  0  0  0  0  0  0  0  0  0  0
   -5.2300   -1.4370    0.0508 Cl  0  0  0  0  0  0  0  0  0  0  0  0
   -3.7796    0.7457   -0.7335 C   0  0  0  0  0  0  0  0  0  0  0  0
   -2.6033    1.4087   -1.0148 C   0  0  0  0  0  0  0  0  0  0  0  0
  1  2  1  0
  2  3  1  0
  2  4  1  0
  4  5  1  0
  5  6  2  0
  5  7  1  0
  7  8  1  0
  8  9  1  0
  9 10  1  0
 10 11  2  0
 11 12  1  0
 12 13  2  0
 13 14  1  0
 13 15  1  0
 15 16  2  0
 16 10  1  0
M  END
>  <zinc_id>  (3) 
ZINC000719145948

>  <smiles>  (3) 
CC(C)NC(=N)SCCc1ccc(Cl)cc1

$$$$

     RDKit          3D

 16 16  0  0  0  0  0  0  0  0999 V2000
    4.8971    0.0927   -0.0774 C   0  0  0  0  0  0  0  0  0  0  0  0
    4.0900    1.3677   -0.0514 C   0  0  0  0  0  0  0  0  0  0  0  0
    4.7387    2.3908   -0.9096 C   0  0  0  0  0  0  0  0  0  0  0  0
    2.6983    1.1202   -0.3833 N   0  0  0  0  0  0  0  0  0  0  0  0
    2.1756   -0.2028   -0.4743 C   0  0  0  0  0  0  0  0  0  0  0  0
    2.9284   -1.2000   -0.2675 O   0  0  0  0  0  0  0  0  0  0  0  0
    0.8079   -0.4856   -0.7957 N   0  0  0  0  0  0  0  0  0  0  0  0
    0.3664   -1.8096   -0.8403 N   0  0  0  0  0  0  0  0  0  0  0  0
   -0.8382   -2.1414   -0.5273 C   0  0  0  0  0  0  0  0  0  0  0  0
   -1.8279   -1.1413   -0.1071 C   0  0  0  0  0  0  0  0  0  0  0  0
   -3.1078   -1.5394    0.3070 C   0  0  0  0  0  0  0  0  0  0  0  0
   -4.0549   -0.5798    0.6728 C   0  0  0  0  0  0  0  0  0  0  0  0
   -3.7920    0.7750    0.6484 C   0  0  0  0  0  0  0  0  0  0  0  0
   -4.9786    1.9793    1.1051 Cl  0  0  0  0  0  0  0  0  0  0  0  0
   -2.5141    1.1657    0.2372 C   0  0  0  0  0  0  0  0  0  0  0  0
   -1.5888    0.2085   -0.1232 C   0  0  0  0  0  0  0  0  0  0  0  0
  1  2  1  0
  2  3  1  0
  2  4  1  0
  4  5  1  0
  5  6  2  0
  5  7  1  0
  7  8  1  0
  8  9  2  3
  9 10  1  0
 10 11  2  0
 11 12  1  0
 12 13  2  0
 13 14  1  0
 13 15  1  0
 15 16  2  0
 16 10  1  0
M  END
>  <zinc_id>  (4) 
ZINC000745012476

>  <smiles>  (4) 
CC(C)NC(=O)NN=Cc1ccc(Cl)cc1

$$$$

     RDKit          3D

 16 16  0  0  0  0  0  0  0  0999 V2000
    3.5931    2.0562    0.4728 C   0  0  0  0  0  0  0  0  0  0  0  0
    3.7472    1.3388   -0.8524 C   0  0  0  0  0  0  0  0  0  0  0  0
    4.8363    0.2867   -0.6425 C   0  0  0  0  0  0  0  0  0  0  0  0
    2.5338    0.6108   -1.1723 N   0  0  0  0  0  0  0  0  0  0  0  0
    2.1219   -0.3980   -0.2440 C   0  0  0  0  0  0  0  0  0  0  0  0
    2.9468   -0.7336    1.1041 S   0  0  0  0  0  0  0  0  0  0  0  0
    0.9385   -1.1173   -0.5435 N   0  0  0  0  0  0  0  0  0  0  0  0
    0.5057   -2.1045    0.3330 N   0  0  0  0  0  0  0  0  0  0  0  0
   -0.6598   -2.0303    0.8345 C   0  0  0  0  0  0  0  0  0  0  0  0
   -1.6082   -0.9671    0.5605 C   0  0  0  0  0  0  0  0  0  0  0  0
   -1.3873    0.1047   -0.2730 C   0  0  0  0  0  0  0  0  0  0  0  0
   -2.3954    1.0544   -0.4417 C   0  0  0  0  0  0  0  0  0  0  0  0
   -3.6109    0.9570    0.2002 C   0  0  0  0  0  0  0  0  0  0  0  0
   -4.8919    2.1351    0.0055 Cl  0  0  0  0  0  0  0  0  0  0  0  0
   -3.8312   -0.1232    1.0392 C   0  0  0  0  0  0  0  0  0  0  0  0
   -2.8385   -1.0695    1.2128 C   0  0  0  0  0  0  0  0  0  0  0  0
  1  2  1  0
  2  3  1  0
  2  4  1  0
  4  5  1  0
  5  6  2  0
  5  7  1  0
  7  8  1  0
  8  9  2  3
  9 10  1  0
 10 11  2  0
 11 12  1  0
 12 13  2  0
 13 14  1  0
 13 15  1  0
 15 16  2  0
 16 10  1  0
M  END
>  <zinc_id>  (5) 
ZINC001317702945

>  <smiles>  (5) 
CC(C)NC(=S)NN=Cc1ccc(Cl)cc1

$$$$

     RDKit          3D

 16 16  0  0  0  0  0  0  0  0999 V2000
    5.4807    0.1845   -1.2810 C   0  0  0  0  0  0  0  0  0  0  0  0
    5.2243    0.3594    0.2170 C   0  0  0  0  0  0  0  0  0  0  0  0
    5.0185    1.8347    0.4861 C   0  0  0  0  0  0  0  0  0  0  0  0
    4.0472   -0.3670    0.6199 N   0  0  0  0  0  0  0  0  0  0  0  0
    2.8010   -0.0631    0.0434 C   0  0  0  0  0  0  0  0  0  0  0  0
    2.6723    1.1003   -1.0744 S   0  0  0  0  0  0  0  0  0  0  0  0
    1.6509   -0.7763    0.4404 N   0  0  0  0  0  0  0  0  0  0  0  0
    0.3826   -0.4989   -0.1165 N   0  0  0  0  0  0  0  0  0  0  0  0
   -0.6265   -0.6467    0.6385 C   0  0  0  0  0  0  0  0  0  0  0  0
   -2.0067   -0.4179    0.2700 C   0  0  0  0  0  0  0  0  0  0  0  0
   -2.4314   -0.0027   -0.9639 C   0  0  0  0  0  0  0  0  0  0  0  0
   -3.7860    0.1871   -1.2125 C   0  0  0  0  0  0  0  0  0  0  0  0
   -4.7283   -0.0351   -0.2338 C   0  0  0  0  0  0  0  0  0  0  0  0
   -6.4091    0.2291   -0.6357 Cl  0  0  0  0  0  0  0  0  0  0  0  0
   -4.3163   -0.4529    1.0121 C   0  0  0  0  0  0  0  0  0  0  0  0
   -2.9733   -0.6345    1.2369 C   0  0  0  0  0  0  0  0  0  0  0  0
  1  2  1  0
  2  3  1  0
  2  4  1  0
  4  5  1  0
  5  6  2  0
  5  7  1  0
  7  8  1  0
  8  9  2  0
  9 10  1  0
 10 11  2  0
 11 12  1  0
 12 13  2  0
 13 14  1  0
 13 15  1  0
 15 16  2  0
 16 10  1  0
M  END
>  <zinc_id>  (6) 
ZINC000006358338

>  <smiles>  (6) 
CC(C)NC(=S)N/N=C/c1ccc(Cl)cc1

$$$$

     RDKit          3D

 17 17  0  0  0  0  0  0  0  0999 V2000
    6.2738    0.2750   -0.3244 C   0  0  0  0  0  0  0  0  0  0  0  0
    5.0924   -0.6203    0.0124 C   0  0  0  0  0  0  0  0  0  0  0  0
    4.5775   -1.2203   -1.2870 C   0  0  0  0  0  0  0  0  0  0  0  0
    4.0444    0.1483    0.6732 N   0  0  0  0  0  0  0  0  0  0  0  0
    2.6954    0.1015    0.2746 C   0  0  0  0  0  0  0  0  0  0  0  0
    2.4044   -0.6518   -0.6842 O   0  0  0  0  0  0  0  0  0  0  0  0
    1.6619    0.9005    0.9619 C   0  0  0  0  0  0  0  0  0  0  0  0
    0.3154    0.4615    0.5820 C   0  0  0  0  0  0  0  0  0  0  0  0
    0.1479   -0.6555    0.0311 O   0  0  0  0  0  0  0  0  0  0  0  0
   -0.8807    1.2424    0.7912 N   0  0  0  0  0  0  0  0  0  0  0  0
   -2.1232    0.6873    0.3739 C   0  0  0  0  0  0  0  0  0  0  0  0
   -3.0124    1.4576   -0.3656 C   0  0  0  0  0  0  0  0  0  0  0  0
   -4.2294    0.9136   -0.7600 C   0  0  0  0  0  0  0  0  0  0  0  0
   -4.6054   -0.3532   -0.4582 C   0  0  0  0  0  0  0  0  0  0  0  0
   -6.1321   -0.9741   -0.9753 Cl  0  0  0  0  0  0  0  0  0  0  0  0
   -3.7260   -1.1148    0.2720 C   0  0  0  0  0  0  0  0  0  0  0  0
   -2.5038   -0.5977    0.6831 C   0  0  0  0  0  0  0  0  0  0  0  0
  1  2  1  0
  2  3  1  0
  2  4  1  0
  4  5  1  0
  5  6  2  0
  5  7  1  0
  7  8  1  0
  8  9  2  0
  8 10  1  0
 10 11  1  0
 11 12  2  0
 12 13  1  0
 13 14  2  0
 14 15  1  0
 14 16  1  0
 16 17  2  0
 17 11  1  0
M  END
>  <zinc_id>  (7) 
ZINC000244280574

>  <smiles>  (7) 
CC(C)NC(=O)CC(=O)Nc1ccc(Cl)cc1

$$$$

     RDKit          3D

 17 17  0  0  0  0  0  0  0  0999 V2000
    5.2855   -1.0361   -0.2728 C   0  0  0  0  0  0  0  0  0  0  0  0
    5.1459    0.3152    0.4186 C   0  0  0  0  0  0  0  0  0  0  0  0
    6.3180    1.1594   -0.0361 C   0  0  0  0  0  0  0  0  0  0  0  0
    3.9079    0.9662   -0.0092 N   0  0  0  0  0  0  0  0  0  0  0  0
    2.6391    0.3744    0.2044 C   0  0  0  0  0  0  0  0  0  0  0  0
    2.5768   -1.0711    0.9484 S   0  0  0  0  0  0  0  0  0  0  0  0
    1.4918    1.0768   -0.2433 N   0  0  0  0  0  0  0  0  0  0  0  0
    0.1887    0.5384   -0.0599 C   0  0  0  0  0  0  0  0  0  0  0  0
    0.0810   -0.5761    0.5093 O   0  0  0  0  0  0  0  0  0  0  0  0
   -1.0290    1.2890   -0.5377 C   0  0  0  0  0  0  0  0  0  0  0  0
   -2.2621    0.5547   -0.2476 C   0  0  0  0  0  0  0  0  0  0  0  0
   -2.9988    0.6712    0.8975 C   0  0  0  0  0  0  0  0  0  0  0  0
   -4.1437   -0.0640    1.0734 C   0  0  0  0  0  0  0  0  0  0  0  0
   -4.5782   -0.9468    0.0835 C   0  0  0  0  0  0  0  0  0  0  0  0
   -6.0474   -1.8343    0.4071 Cl  0  0  0  0  0  0  0  0  0  0  0  0
   -3.8579   -1.0812   -1.0719 C   0  0  0  0  0  0  0  0  0  0  0  0
   -2.7175   -0.3358   -1.2241 C   0  0  0  0  0  0  0  0  0  0  0  0
  1  2  1  0
  2  3  1  0
  2  4  1  0
  4  5  1  0
  5  6  2  0
  5  7  1  0
  7  8  1  0
  8  9  2  0
  8 10  1  0
 10 11  1  0
 11 12  2  0
 12 13  1  0
 13 14  2  0
 14 15  1  0
 14 16  1  0
 16 17  2  0
 17 11  1  0
M  END
>  <zinc_id>  (8) 
ZINC000014002053

>  <smiles>  (8) 
CC(C)NC(=S)NC(=O)Cc1ccc(Cl)cc1

$$$$

     RDKit          3D

 16 16  0  0  0  0  0  0  0  0999 V2000
    4.9283   -0.3619   -1.4303 C   0  0  0  0  0  0  0  0  0  0  0  0
    3.7055    0.3313   -2.0388 C   0  0  0  0  0  0  0  0  0  0  0  0
    3.7505    1.8253   -1.8041 C   0  0  0  0  0  0  0  0  0  0  0  0
    2.4844   -0.2463   -1.4870 N   0  0  0  0  0  0  0  0  0  0  0  0
    2.2262   -0.2000   -0.0805 C   0  0  0  0  0  0  0  0  0  0  0  0
    3.3246    0.5125    0.9022 S   0  0  0  0  0  0  0  0  0  0  0  0
    1.0347   -0.7736    0.3809 N   0  0  0  0  0  0  0  0  0  0  0  0
    0.6351   -0.8044    1.7736 C   0  0  0  0  0  0  0  0  0  0  0  0
   -0.6896   -1.4869    1.9402 C   0  0  0  0  0  0  0  0  0  0  0  0
   -1.7297   -0.7723    1.1760 C   0  0  0  0  0  0  0  0  0  0  0  0
   -2.0492   -1.0533   -0.1332 C   0  0  0  0  0  0  0  0  0  0  0  0
   -3.0298   -0.3603   -0.8125 C   0  0  0  0  0  0  0  0  0  0  0  0
   -3.7359    0.6595   -0.1840 C   0  0  0  0  0  0  0  0  0  0  0  0
   -4.9846    1.5328   -1.0690 Cl  0  0  0  0  0  0  0  0  0  0  0  0
   -3.4223    0.9445    1.1207 C   0  0  0  0  0  0  0  0  0  0  0  0
   -2.4481    0.2531    1.7895 C   0  0  0  0  0  0  0  0  0  0  0  0
  1  2  1  0
  2  3  1  0
  2  4  1  0
  4  5  1  0
  5  6  2  0
  5  7  1  0
  7  8  1  0
  8  9  1  0
  9 10  1  0
 10 11  2  0
 11 12  1  0
 12 13  2  0
 13 14  1  0
 13 15  1  0
 15 16  2  0
 16 10  1  0
M  END
>  <zinc_id>  (9) 
ZINC000013815426

>  <smiles>  (9) 
CC(C)NC(=S)NCCc1ccc(Cl)cc1

$$$$

     RDKit          3D

 17 17  0  0  0  0  0  0  0  0999 V2000
   -6.0160    0.8069    0.2416 C   0  0  0  0  0  0  0  0  0  0  0  0
   -5.2317    0.3280    0.0676 C   0  0  0  0  0  0  0  0  0  0  0  0
   -5.2232   -0.9787   -0.7188 C   0  0  0  0  0  0  0  0  0  0  0  0
   -3.9578    0.4263    0.7457 N   0  0  0  0  0  0  0  0  0  0  0  0
   -2.7085    0.0590    0.2296 C   0  0  0  0  0  0  0  0  0  0  0  0
   -2.6837   -0.4122   -0.9535 O   0  0  0  0  0  0  0  0  0  0  0  0
   -1.4871    0.1744    0.9233 N   0  0  0  0  0  0  0  0  0  0  0  0
   -0.2168   -0.3061    0.1369 C   0  0  2  0  0  0  0  0  0  0  0  0
   -0.0477   -1.6606    1.0505 C   0  0  0  0  0  0  0  0  0  0  0  0
    0.7433    0.5055    0.9992 O   0  0  0  0  0  0  0  0  0  0  0  0
    2.0553    0.3345    0.5922 C   0  0  0  0  0  0  0  0  0  0  0  0
    3.0795    1.0008    1.2614 C   0  0  0  0  0  0  0  0  0  0  0  0
    4.3905    0.8721    0.9068 C   0  0  0  0  0  0  0  0  0  0  0  0
    4.7518    0.0575   -0.1529 C   0  0  0  0  0  0  0  0  0  0  0  0
    6.4144   -0.1470   -0.6573 Cl  0  0  0  0  0  0  0  0  0  0  0  0
    3.7331   -0.5922   -0.8019 C   0  0  0  0  0  0  0  0  0  0  0  0
    2.4045   -0.4683   -0.4510 C   0  0  0  0  0  0  0  0  0  0  0  0
  1  2  1  0
  2  3  1  0
  2  4  1  0
  4  5  1  0
  5  6  2  0
  5  7  1  0
  7  8  1  0
  8  9  1  1
  8 10  1  0
 10 11  1  0
 11 12  2  0
 12 13  1  0
 13 14  2  0
 14 15  1  0
 14 16  1  0
 16 17  2  0
 17 11  1  0
M  END
>  <zinc_id>  (10) 
ZINC000217294518

>  <smiles>  (10) 
CC(C)NC(=O)N[C@H](C)Oc1ccc(Cl)cc1

$$$$

     RDKit          3D

 16 16  0  0  0  0  0  0  0  0999 V2000
   -3.9460    0.8782    1.2127 C   0  0  0  0  0  0  0  0  0  0  0  0
   -4.8298   -0.0257    0.3364 C   0  0  0  0  0  0  0  0  0  0  0  0
   -5.3653    0.8952   -0.7698 C   0  0  0  0  0  0  0  0  0  0  0  0
   -3.9112   -1.0224   -0.2775 N   0  0  0  0  0  0  0  0  0  0  0  0
   -2.5294   -0.6968   -0.4043 C   0  0  0  0  0  0  0  0  0  0  0  0
   -2.1281    0.3958   -0.0188 O   0  0  0  0  0  0  0  0  0  0  0  0
   -1.5457   -1.5997   -0.9732 N   0  0  0  0  0  0  0  0  0  0  0  0
   -0.1520   -1.1451   -1.0493 C   0  0  0  0  0  0  0  0  0  0  0  0
    0.3822   -0.8259    0.3111 C   0  0  0  0  0  0  0  0  0  0  0  0
    1.7785   -0.3333    0.2011 C   0  0  0  0  0  0  0  0  0  0  0  0
    2.8942   -1.1189    0.2533 C   0  0  0  0  0  0  0  0  0  0  0  0
    4.1527   -0.5246    0.1580 C   0  0  0  0  0  0  0  0  0  0  0  0
    4.2656    0.8338    0.0118 C   0  0  0  0  0  0  0  0  0  0  0  0
    5.8364    1.5976   -0.0963 Cl  0  0  0  0  0  0  0  0  0  0  0  0
    3.1572    1.6579   -0.0471 C   0  0  0  0  0  0  0  0  0  0  0  0
    1.9407    1.0340    0.0511 C   0  0  0  0  0  0  0  0  0  0  0  0
  1  2  1  0
  2  3  1  0
  2  4  1  0
  4  5  1  0
  5  6  2  0
  5  7  1  0
  7  8  1  0
  8  9  1  0
  9 10  1  0
 10 11  2  0
 11 12  1  0
 12 13  2  0
 13 14  1  0
 13 15  1  0
 15 16  2  0
 16 10  1  0
M  END
>  <zinc_id>  (11) 
ZINC000048727568

>  <smiles>  (11) 
CC(C)NC(=O)NCCc1ccc(Cl)cc1

$$$$

     RDKit          3D

 16 16  0  0  0  0  0  0  0  0999 V2000
    5.3688   -0.0920   -0.7702 C   0  0  0  0  0  0  0  0  0  0  0  0
    5.1172    0.3067    0.6979 C   0  0  0  0  0  0  0  0  0  0  0  0
    4.4524    1.6908    0.5931 C   0  0  0  0  0  0  0  0  0  0  0  0
    4.0392   -0.6242    1.1155 N   0  0  0  0  0  0  0  0  0  0  0  0
    2.7784   -0.4331    0.4513 C   0  0  0  0  0  0  0  0  0  0  0  0
    2.6293    0.4848   -0.4359 O   0  0  0  0  0  0  0  0  0  0  0  0
    1.6180   -1.2165    0.7093 N   0  0  0  0  0  0  0  0  0  0  0  0
    0.3989   -0.9155   -0.0210 C   0  0  0  0  0  0  0  0  0  0  0  0
   -0.6511   -0.5957    0.6680 C   0  0  0  0  0  0  0  0  0  0  0  0
   -1.9669   -0.2541    0.1479 C   0  0  0  0  0  0  0  0  0  0  0  0
   -2.2933   -0.1990   -1.1866 C   0  0  0  0  0  0  0  0  0  0  0  0
   -3.5567    0.1348   -1.6410 C   0  0  0  0  0  0  0  0  0  0  0  0
   -4.5452    0.4273   -0.7398 C   0  0  0  0  0  0  0  0  0  0  0  0
   -6.1708    0.8674   -1.2436 Cl  0  0  0  0  0  0  0  0  0  0  0  0
   -4.2548    0.3784    0.5887 C   0  0  0  0  0  0  0  0  0  0  0  0
   -2.9634    0.0399    1.0664 C   0  0  0  0  0  0  0  0  0  0  0  0
  1  2  1  0
  2  3  1  0
  2  4  1  0
  4  5  1  0
  5  6  2  0
  5  7  1  0
  7  8  1  0
  8  9  2  0
  9 10  1  0
 10 11  2  0
 11 12  1  0
 12 13  2  0
 13 14  1  0
 13 15  1  0
 15 16  2  0
 16 10  1  0
M  END
>  <zinc_id>  (12) 
ZINC000218227740

>  <smiles>  (12) 
CC(C)NC(=O)N/C=C/c1ccc(Cl)cc1

$$$$

     RDKit          3D

 17 17  0  0  0  0  0  0  0  0999 V2000
    5.7618    1.0306    0.4695 C   0  0  0  0  0  0  0  0  0  0  0  0
    4.9809    1.1639    0.4233 C   0  0  0  0  0  0  0  0  0  0  0  0
    4.2660    2.1952   -0.4715 C   0  0  0  0  0  0  0  0  0  0  0  0
    3.9444    0.2401    0.9354 N   0  0  0  0  0  0  0  0  0  0  0  0
    2.6951    0.1669    0.3076 C   0  0  0  0  0  0  0  0  0  0  0  0
    2.5328    0.9350   -0.7039 O   0  0  0  0  0  0  0  0  0  0  0  0
    1.6356   -0.6639    0.6974 N   0  0  0  0  0  0  0  0  0  0  0  0
    0.3585   -0.5008   -0.1996 C   0  0  1  0  0  0  0  0  0  0  0  0
    0.2382   -2.0989   -0.5104 C   0  0  0  0  0  0  0  0  0  0  0  0
   -0.5995   -0.5586    0.9912 O   0  0  0  0  0  0  0  0  0  0  0  0
   -1.9214   -0.4357    0.5853 C   0  0  0  0  0  0  0  0  0  0  0  0
   -2.3012   -0.2837   -0.7142 C   0  0  0  0  0  0  0  0  0  0  0  0
   -3.5980   -0.1570   -1.1611 C   0  0  0  0  0  0  0  0  0  0  0  0
   -4.5861   -0.1899   -0.1747 C   0  0  0  0  0  0  0  0  0  0  0  0
   -6.2671   -0.0344   -0.6973 Cl  0  0  0  0  0  0  0  0  0  0  0  0
   -4.2310   -0.3415    1.1375 C   0  0  0  0  0  0  0  0  0  0  0  0
   -2.9091   -0.4675    1.5640 C   0  0  0  0  0  0  0  0  0  0  0  0
  1  2  1  0
  2  3  1  0
  2  4  1  0
  4  5  1  0
  5  6  2  0
  5  7  1  0
  7  8  1  0
  8  9  1  6
  8 10  1  0
 10 11  1  0
 11 12  2  0
 12 13  1  0
 13 14  2  0
 14 15  1  0
 14 16  1  0
 16 17  2  0
 17 11  1  0
M  END
>  <zinc_id>  (13) 
ZINC000217294516

>  <smiles>  (13) 
CC(C)NC(=O)N[C@@H](C)Oc1ccc(Cl)cc1

$$$$

     RDKit          3D

 16 16  0  0  0  0  0  0  0  0999 V2000
   -4.8854    1.4907    1.8544 C   0  0  0  0  0  0  0  0  0  0  0  0
   -3.9475    1.4649    0.6602 C   0  0  0  0  0  0  0  0  0  0  0  0
   -4.6893    1.8660   -0.6109 C   0  0  0  0  0  0  0  0  0  0  0  0
   -3.3937    0.1389    0.5493 N   0  0  0  0  0  0  0  0  0  0  0  0
   -2.2462   -0.1830   -0.2362 C   0  0  0  0  0  0  0  0  0  0  0  0
   -1.7141    0.7657   -0.8508 O   0  0  0  0  0  0  0  0  0  0  0  0
   -1.8030   -1.5283   -0.2591 N   0  0  0  0  0  0  0  0  0  0  0  0
   -0.6518   -1.8874   -1.0309 C   0  0  0  0  0  0  0  0  0  0  0  0
    0.4604   -1.3590   -0.7316 O   0  0  0  0  0  0  0  0  0  0  0  0
    1.5961   -0.8188   -0.4261 C   0  0  0  0  0  0  0  0  0  0  0  0
    1.8591    0.5619   -0.4465 C   0  0  0  0  0  0  0  0  0  0  0  0
    3.0789    1.0903   -0.1127 C   0  0  0  0  0  0  0  0  0  0  0  0
    4.1022    0.2602    0.2597 C   0  0  0  0  0  0  0  0  0  0  0  0
    5.6760    0.8700    0.7018 Cl  0  0  0  0  0  0  0  0  0  0  0  0
    3.8875   -1.0888    0.2927 C   0  0  0  0  0  0  0  0  0  0  0  0
    2.6706   -1.6434   -0.0380 C   0  0  0  0  0  0  0  0  0  0  0  0
  1  2  1  0
  2  3  1  0
  2  4  1  0
  4  5  1  0
  5  6  2  0
  5  7  1  0
  7  8  1  0
  8  9  1  0
  9 10  1  0
 10 11  2  0
 11 12  1  0
 12 13  2  0
 13 14  1  0
 13 15  1  0
 15 16  2  0
 16 10  1  0
M  END
>  <zinc_id>  (14) 
ZINC000217301519

>  <smiles>  (14) 
CC(C)NC(=O)NCOc1ccc(Cl)cc1

$$$$

     RDKit          3D

 17 17  0  0  0  0  0  0  0  0999 V2000
   -3.7974    2.5244    0.2400 C   0  0  0  0  0  0  0  0  0  0  0  0
   -3.6462    1.7477    0.0549 C   0  0  0  0  0  0  0  0  0  0  0  0
   -4.6114    0.7303    0.6244 C   0  0  0  0  0  0  0  0  0  0  0  0
   -2.2932    1.2343    0.0538 N   0  0  0  0  0  0  0  0  0  0  0  0
   -1.9665   -0.1030   -0.2586 C   0  0  0  0  0  0  0  0  0  0  0  0
   -2.8806   -0.9411   -0.5729 N   0  0  0  0  0  0  0  0  0  0  0  0
   -0.6564   -0.5372   -0.2326 N   0  0  0  0  0  0  0  0  0  0  0  0
   -0.3432   -2.0147    0.1639 C   0  0  1  0  0  0  0  0  0  0  0  0
   -1.2262   -2.6628   -1.0749 C   0  0  0  0  0  0  0  0  0  0  0  0
    1.0620   -2.0976   -0.6673 C   0  0  0  0  0  0  0  0  0  0  0  0
    1.9089   -1.0394   -0.0704 C   0  0  0  0  0  0  0  0  0  0  0  0
    2.7523   -1.2558    1.0045 C   0  0  0  0  0  0  0  0  0  0  0  0
    3.5123   -0.2060    1.5019 C   0  0  0  0  0  0  0  0  0  0  0  0
    3.4654    1.0651    0.9655 C   0  0  0  0  0  0  0  0  0  0  0  0
    4.2298    2.0701    1.4849 F   0  0  0  0  0  0  0  0  0  0  0  0
    2.6237    1.2679   -0.1022 C   0  0  0  0  0  0  0  0  0  0  0  0
    1.8666    0.2179   -0.5960 C   0  0  0  0  0  0  0  0  0  0  0  0
  1  2  1  0
  2  3  1  0
  2  4  1  0
  4  5  1  0
  5  6  2  0
  5  7  1  0
  7  8  1  0
  8  9  1  6
  8 10  1  0
 10 11  1  0
 11 12  2  0
 12 13  1  0
 13 14  2  0
 14 15  1  0
 14 16  1  0
 16 17  2  0
 17 11  1  0
M  END
>  <zinc_id>  (15) 
ZINC000062034271

>  <smiles>  (15) 
CC(C)NC(=N)N[C@@H](C)Cc1ccc(F)cc1

$$$$

     RDKit          3D

 17 17  0  0  0  0  0  0  0  0999 V2000
    5.2559    0.2924    1.4086 C   0  0  0  0  0  0  0  0  0  0  0  0
    5.1140   -0.3603    0.0424 C   0  0  0  0  0  0  0  0  0  0  0  0
    5.1099    0.7299   -1.0026 C   0  0  0  0  0  0  0  0  0  0  0  0
    3.9057   -1.1604   -0.0434 N   0  0  0  0  0  0  0  0  0  0  0  0
    2.5983   -0.5838    0.1399 C   0  0  0  0  0  0  0  0  0  0  0  0
    2.5908    0.5998    0.6714 N   0  0  0  0  0  0  0  0  0  0  0  0
    1.4113   -1.2699   -0.2373 N   0  0  0  0  0  0  0  0  0  0  0  0
    0.2469   -0.2168   -0.4793 C   0  0  2  0  0  0  0  0  0  0  0  0
    0.2999    0.3351    1.0853 C   0  0  0  0  0  0  0  0  0  0  0  0
   -0.9408   -1.3453   -0.1073 C   0  0  0  0  0  0  0  0  0  0  0  0
   -2.1656   -0.5355   -0.2782 C   0  0  0  0  0  0  0  0  0  0  0  0
   -2.7576    0.1916    0.7093 C   0  0  0  0  0  0  0  0  0  0  0  0
   -3.9048    0.9452    0.5333 C   0  0  0  0  0  0  0  0  0  0  0  0
   -4.4900    0.9633   -0.7243 C   0  0  0  0  0  0  0  0  0  0  0  0
   -5.6129    1.6952   -0.9144 F   0  0  0  0  0  0  0  0  0  0  0  0
   -3.9041    0.2282   -1.7507 C   0  0  0  0  0  0  0  0  0  0  0  0
   -2.7569   -0.5088   -1.5224 C   0  0  0  0  0  0  0  0  0  0  0  0
  1  2  1  0
  2  3  1  0
  2  4  1  0
  4  5  1  0
  5  6  2  0
  5  7  1  0
  7  8  1  0
  8  9  1  1
  8 10  1  0
 10 11  1  0
 11 12  2  0
 12 13  1  0
 13 14  2  0
 14 15  1  0
 14 16  1  0
 16 17  2  0
 17 11  1  0
M  END
>  <zinc_id>  (16) 
ZINC000062034272

>  <smiles>  (16) 
CC(C)NC(=N)N[C@H](C)Cc1ccc(F)cc1

$$$$

     RDKit          3D

 16 16  0  0  0  0  0  0  0  0999 V2000
    4.7189    0.3012   -0.4900 C   0  0  0  0  0  0  0  0  0  0  0  0
    3.6931    1.3605   -0.1034 C   0  0  0  0  0  0  0  0  0  0  0  0
    2.8526    1.7745   -1.2905 C   0  0  0  0  0  0  0  0  0  0  0  0
    2.7811    0.8450    0.9060 N   0  0  0  0  0  0  0  0  0  0  0  0
    1.9888   -0.3081    0.6200 C   0  0  0  0  0  0  0  0  0  0  0  0
    2.3681   -1.0215   -0.3972 N   0  0  0  0  0  0  0  0  0  0  0  0
    0.8423   -0.6656    1.4086 N   0  0  0  0  0  0  0  0  0  0  0  0
    0.2707   -1.9746    1.1801 C   0  0  0  0  0  0  0  0  0  0  0  0
   -0.3704   -2.0304   -0.1850 C   0  0  0  0  0  0  0  0  0  0  0  0
   -1.4421   -1.0112   -0.2351 C   0  0  0  0  0  0  0  0  0  0  0  0
   -1.1812    0.2662   -0.6688 C   0  0  0  0  0  0  0  0  0  0  0  0
   -2.1573    1.2387   -0.7266 C   0  0  0  0  0  0  0  0  0  0  0  0
   -3.4687    0.9460   -0.3370 C   0  0  0  0  0  0  0  0  0  0  0  0
   -4.4656    1.9232   -0.3910 O   0  0  0  0  0  0  0  0  0  0  0  0
   -3.6994   -0.3407    0.0925 C   0  0  0  0  0  0  0  0  0  0  0  0
   -2.7309   -1.3032    0.1492 C   0  0  0  0  0  0  0  0  0  0  0  0
  1  2  1  0
  2  3  1  0
  2  4  1  0
  4  5  1  0
  5  6  2  0
  5  7  1  0
  7  8  1  0
  8  9  1  0
  9 10  1  0
 10 11  2  0
 11 12  1  0
 12 13  2  0
 13 14  1  0
 13 15  1  0
 15 16  2  0
 16 10  1  0
M  END
>  <zinc_id>  (17) 
ZINC000052043329

>  <smiles>  (17) 
CC(C)NC(=N)NCCc1ccc(O)cc1

$$$$

     RDKit          3D

 16 16  0  0  0  0  0  0  0  0999 V2000
    4.7707    1.7638   -0.0114 C   0  0  0  0  0  0  0  0  0  0  0  0
    3.7517    0.9563    0.7580 C   0  0  0  0  0  0  0  0  0  0  0  0
    2.7394    1.8795    1.4160 C   0  0  0  0  0  0  0  0  0  0  0  0
    3.0320    0.0965   -0.1342 N   0  0  0  0  0  0  0  0  0  0  0  0
    2.0062   -0.7918    0.3031 C   0  0  0  0  0  0  0  0  0  0  0  0
    1.9562   -1.1027    1.5531 N   0  0  0  0  0  0  0  0  0  0  0  0
    1.0427   -1.3494   -0.5778 N   0  0  0  0  0  0  0  0  0  0  0  0
    0.1636   -2.4374   -0.2179 C   0  0  0  0  0  0  0  0  0  0  0  0
   -0.8121   -1.9330    0.8168 C   0  0  0  0  0  0  0  0  0  0  0  0
   -1.6015   -0.8196    0.2635 C   0  0  0  0  0  0  0  0  0  0  0  0
   -2.7827   -1.1924   -0.3878 C   0  0  0  0  0  0  0  0  0  0  0  0
   -3.5839   -0.2207   -0.9344 C   0  0  0  0  0  0  0  0  0  0  0  0
   -3.2678    1.1236   -0.8667 C   0  0  0  0  0  0  0  0  0  0  0  0
   -4.0650    2.0765   -1.4117 F   0  0  0  0  0  0  0  0  0  0  0  0
   -2.1006    1.4335   -0.2190 C   0  0  0  0  0  0  0  0  0  0  0  0
   -1.2488    0.5174    0.3526 C   0  0  0  0  0  0  0  0  0  0  0  0
  1  2  1  0
  2  3  1  0
  2  4  1  0
  4  5  1  0
  5  6  2  0
  5  7  1  0
  7  8  1  0
  8  9  1  0
  9 10  1  0
 10 11  2  0
 11 12  1  0
 12 13  2  0
 13 14  1  0
 13 15  1  0
 15 16  2  0
 16 10  1  0
M  END
>  <zinc_id>  (18) 
ZINC000052040937

>  <smiles>  (18) 
CC(C)NC(=N)NCCc1ccc(F)cc1

$$$$

     RDKit          3D

 16 16  0  0  0  0  0  0  0  0999 V2000
    3.9879    2.6945   -0.7608 C   0  0  0  0  0  0  0  0  0  0  0  0
    3.7219    1.2996   -0.3333 C   0  0  0  0  0  0  0  0  0  0  0  0
    4.1295    0.9879    1.0714 C   0  0  0  0  0  0  0  0  0  0  0  0
    2.3873    0.8219   -0.6460 N   0  0  0  0  0  0  0  0  0  0  0  0
    2.0646   -0.5014   -0.2543 C   0  0  0  0  0  0  0  0  0  0  0  0
    2.7650   -1.0363    0.6942 N   0  0  0  0  0  0  0  0  0  0  0  0
    1.0145   -1.2749   -0.8488 N   0  0  0  0  0  0  0  0  0  0  0  0
    0.4438   -2.3786   -0.0626 C   0  0  0  0  0  0  0  0  0  0  0  0
   -0.3139   -1.7811    1.0945 C   0  0  0  0  0  0  0  0  0  0  0  0
   -1.4335   -0.8990    0.6558 C   0  0  0  0  0  0  0  0  0  0  0  0
   -1.2611    0.4462    0.4372 C   0  0  0  0  0  0  0  0  0  0  0  0
   -2.3479    1.2153    0.0220 C   0  0  0  0  0  0  0  0  0  0  0  0
   -3.5949    0.7041   -0.1852 C   0  0  0  0  0  0  0  0  0  0  0  0
   -5.0843    1.7649   -0.7546 Br  0  0  0  0  0  0  0  0  0  0  0  0
   -3.7774   -0.6528    0.0333 C   0  0  0  0  0  0  0  0  0  0  0  0
   -2.7015   -1.4104    0.4445 C   0  0  0  0  0  0  0  0  0  0  0  0
  1  2  1  0
  2  3  1  0
  2  4  1  0
  4  5  1  0
  5  6  2  0
  5  7  1  0
  7  8  1  0
  8  9  1  0
  9 10  1  0
 10 11  2  0
 11 12  1  0
 12 13  2  0
 13 14  1  0
 13 15  1  0
 15 16  2  0
 16 10  1  0
M  END
>  <zinc_id>  (19) 
ZINC000390663607

>  <smiles>  (19) 
CC(C)NC(=N)NCCc1ccc(Br)cc1

$$$$
