
     RDKit          3D

 16 16  0  0  0  0  0  0  0  0999 V2000
    3.8965    2.1505   -0.8941 C   0  0  0  0  0  0  0  0  0  0  0  0
    2.8615    1.1679   -0.3897 C   0  0  0  0  0  0  0  0  0  0  0  0
    2.7641    1.1764    1.1150 C   0  0  0  0  0  0  0  0  0  0  0  0
    3.1261   -0.1188   -0.9402 N   0  0  0  0  0  0  0  0  0  0  0  0
    2.2916   -1.2162   -0.6172 C   0  0  0  0  0  0  0  0  0  0  0  0
    2.5928   -2.7083   -1.2513 S   0  0  0  0  0  0  0  0  0  0  0  0
    1.1959   -1.0061    0.2595 N   0  0  0  0  0  0  0  0  0  0  0  0
    0.3404   -2.1283    0.5915 C   0  0  0  0  0  0  0  0  0  0  0  0
   -0.7620   -1.7127    1.5296 C   0  0  0  0  0  0  0  0  0  0  0  0
   -1.5922   -0.6606    0.8923 C   0  0  0  0  0  0  0  0  0  0  0  0
   -1.2935    0.6797    1.0397 C   0  0  0  0  0  0  0  0  0  0  0  0
   -2.0429    1.6840    0.4618 C   0  0  0  0  0  0  0  0  0  0  0  0
   -3.1377    1.2838   -0.2935 C   0  0  0  0  0  0  0  0  0  0  0  0
   -4.1252    2.5007   -1.0500 Cl  0  0  0  0  0  0  0  0  0  0  0  0
   -3.4438   -0.0508   -0.4464 C   0  0  0  0  0  0  0  0  0  0  0  0
   -2.6715   -1.0411    0.1470 C   0  0  0  0  0  0  0  0  0  0  0  0
  1  2  1  0
  2  3  1  0
  2  4  1  0
  4  5  1  0
  5  6  2  0
  5  7  1  0
  7  8  1  0
  8  9  1  0
  9 10  1  0
 10 11  2  0
 11 12  1  0
 12 13  2  0
 13 14  1  0
 13 15  1  0
 15 16  2  0
 16 10  1  0
M  END
>  <zinc_id>  (1) 
ZINC000013815426

>  <smiles>  (1) 
CC(C)NC(=S)NCCc1ccc(Cl)cc1

$$$$
