
     RDKit          3D

 17 17  0  0  0  0  0  0  0  0999 V2000
    3.9061    2.2306   -0.7761 C   0  0  0  0  0  0  0  0  0  0  0  0
    4.4841    1.0485   -0.0469 C   0  0  0  0  0  0  0  0  0  0  0  0
    5.1593    1.5742    1.1973 C   0  0  0  0  0  0  0  0  0  0  0  0
    3.3339    0.2928    0.4673 N   0  0  0  0  0  0  0  0  0  0  0  0
    2.3588   -0.3012   -0.4127 C   0  0  0  0  0  0  0  0  0  0  0  0
    2.5069   -0.1943   -1.6599 O   0  0  0  0  0  0  0  0  0  0  0  0
    1.2710   -0.9711    0.2225 N   0  0  0  0  0  0  0  0  0  0  0  0
    0.2567   -1.3770   -0.9668 C   0  0  1  0  0  0  0  0  0  0  0  0
    0.8737   -3.0330   -0.7951 C   0  0  0  0  0  0  0  0  0  0  0  0
   -0.9060   -1.7351    0.1123 O   0  0  0  0  0  0  0  0  0  0  0  0
   -1.9689   -0.9163    0.0600 C   0  0  0  0  0  0  0  0  0  0  0  0
   -3.1928   -1.1422    0.5548 C   0  0  0  0  0  0  0  0  0  0  0  0
   -4.2234   -0.2508    0.5103 C   0  0  0  0  0  0  0  0  0  0  0  0
   -4.0102    0.9911   -0.1074 C   0  0  0  0  0  0  0  0  0  0  0  0
   -5.2893    2.1745   -0.1789 Cl  0  0  0  0  0  0  0  0  0  0  0  0
   -2.7820    1.2352   -0.6179 C   0  0  0  0  0  0  0  0  0  0  0  0
   -1.7779    0.3741   -0.5702 C   0  0  0  0  0  0  0  0  0  0  0  0
  1  2  1  0
  2  3  1  0
  2  4  1  0
  4  5  1  0
  5  6  2  0
  5  7  1  0
  7  8  1  0
  8  9  1  1
  8 10  1  0
 10 11  1  0
 11 12  2  0
 12 13  1  0
 13 14  2  0
 14 15  1  0
 14 16  1  0
 16 17  2  0
 17 11  1  0
M  END
>  <zinc_id>  (1) 
ZINC000217294516

>  <smiles>  (1) 
CC(C)NC(=O)N[C@@H](C)Oc1ccc(Cl)cc1

$$$$
