
     RDKit          3D

 17 17  0  0  0  0  0  0  0  0999 V2000
    4.7844    1.3216   -0.4509 C   0  0  0  0  0  0  0  0  0  0  0  0
    5.1822    0.0876    0.3278 C   0  0  0  0  0  0  0  0  0  0  0  0
    6.0624   -0.7609   -0.6082 C   0  0  0  0  0  0  0  0  0  0  0  0
    4.0112   -0.7679    0.5816 N   0  0  0  0  0  0  0  0  0  0  0  0
    2.7223   -0.1667    0.2993 C   0  0  0  0  0  0  0  0  0  0  0  0
    2.6420    0.9919   -0.1217 O   0  0  0  0  0  0  0  0  0  0  0  0
    1.5567   -1.0345    0.5492 C   0  0  0  0  0  0  0  0  0  0  0  0
    0.2666   -0.3468    0.3163 C   0  0  0  0  0  0  0  0  0  0  0  0
    0.1896    0.8863    0.1445 O   0  0  0  0  0  0  0  0  0  0  0  0
   -0.8779   -1.2248    0.3012 N   0  0  0  0  0  0  0  0  0  0  0  0
   -2.1546   -0.6070    0.0749 C   0  0  0  0  0  0  0  0  0  0  0  0
   -2.2856    0.7748    0.1427 C   0  0  0  0  0  0  0  0  0  0  0  0
   -3.5447    1.3181   -0.1081 C   0  0  0  0  0  0  0  0  0  0  0  0
   -4.6503    0.5281   -0.4192 C   0  0  0  0  0  0  0  0  0  0  0  0
   -6.2095    1.2414   -0.7345 Cl  0  0  0  0  0  0  0  0  0  0  0  0
   -4.4675   -0.8232   -0.4734 C   0  0  0  0  0  0  0  0  0  0  0  0
   -3.2275   -1.4182   -0.2292 C   0  0  0  0  0  0  0  0  0  0  0  0
  1  2  1  0
  2  3  1  0
  2  4  1  0
  4  5  1  0
  5  6  2  0
  5  7  1  0
  7  8  1  0
  8  9  2  0
  8 10  1  0
 10 11  1  0
 11 12  2  0
 12 13  1  0
 13 14  2  0
 14 15  1  0
 14 16  1  0
 16 17  2  0
 17 11  1  0
M  END
>  <zinc_id>  (1) 
ZINC000244280574

>  <smiles>  (1) 
CC(C)NC(=O)CC(=O)Nc1ccc(Cl)cc1

$$$$
