
     RDKit          3D

 16 16  0  0  0  0  0  0  0  0999 V2000
    6.2933   -0.4174   -0.8381 C   0  0  0  0  0  0  0  0  0  0  0  0
    5.0216    0.3172   -0.4651 C   0  0  0  0  0  0  0  0  0  0  0  0
    5.2899    1.2242    0.7365 C   0  0  0  0  0  0  0  0  0  0  0  0
    3.9982   -0.6213   -0.0209 N   0  0  0  0  0  0  0  0  0  0  0  0
    2.6295   -0.3847   -0.3012 C   0  0  0  0  0  0  0  0  0  0  0  0
    2.3603    0.6816   -0.9525 O   0  0  0  0  0  0  0  0  0  0  0  0
    1.5868   -1.2692    0.1091 N   0  0  0  0  0  0  0  0  0  0  0  0
    0.2533   -0.8595   -0.2582 C   0  0  0  0  0  0  0  0  0  0  0  0
   -0.6849   -0.6453    0.6252 C   0  0  0  0  0  0  0  0  0  0  0  0
   -2.0410   -0.2354    0.3835 C   0  0  0  0  0  0  0  0  0  0  0  0
   -2.6014    0.0202   -0.8576 C   0  0  0  0  0  0  0  0  0  0  0  0
   -3.9172    0.4031   -0.9810 C   0  0  0  0  0  0  0  0  0  0  0  0
   -4.7288    0.5480    0.1112 C   0  0  0  0  0  0  0  0  0  0  0  0
   -6.3994    1.0277    0.0133 Cl  0  0  0  0  0  0  0  0  0  0  0  0
   -4.1898    0.2959    1.3790 C   0  0  0  0  0  0  0  0  0  0  0  0
   -2.8705   -0.0853    1.4712 C   0  0  0  0  0  0  0  0  0  0  0  0
  1  2  1  0
  2  3  1  0
  2  4  1  0
  4  5  1  0
  5  6  2  0
  5  7  1  0
  7  8  1  0
  8  9  2  0
  9 10  1  0
 10 11  2  0
 11 12  1  0
 12 13  2  0
 13 14  1  0
 13 15  1  0
 15 16  2  0
 16 10  1  0
M  END
>  <zinc_id>  (1) 
ZINC000218227740

>  <smiles>  (1) 
CC(C)NC(=O)N/C=C/c1ccc(Cl)cc1

$$$$
