
     RDKit          3D

 17 17  0  0  0  0  0  0  0  0999 V2000
   -4.5581    0.3325    2.2000 C   0  0  0  0  0  0  0  0  0  0  0  0
   -3.7323   -0.8848    1.8510 C   0  0  0  0  0  0  0  0  0  0  0  0
   -4.5444   -1.9284    1.1211 C   0  0  0  0  0  0  0  0  0  0  0  0
   -2.6008   -0.4930    1.0056 N   0  0  0  0  0  0  0  0  0  0  0  0
   -2.8914    0.1240   -0.2402 C   0  0  0  0  0  0  0  0  0  0  0  0
   -4.4209    0.3976   -0.7350 S   0  0  0  0  0  0  0  0  0  0  0  0
   -1.8448    0.5314   -1.1138 N   0  0  0  0  0  0  0  0  0  0  0  0
   -0.4871    0.3112   -0.7209 C   0  0  0  0  0  0  0  0  0  0  0  0
   -0.2771   -0.2300    0.3738 O   0  0  0  0  0  0  0  0  0  0  0  0
    0.5972    0.7458   -1.6514 C   0  0  0  0  0  0  0  0  0  0  0  0
    1.8996    0.4169   -1.0345 C   0  0  0  0  0  0  0  0  0  0  0  0
    2.6050    1.2649   -0.2094 C   0  0  0  0  0  0  0  0  0  0  0  0
    3.8215    0.9099    0.3439 C   0  0  0  0  0  0  0  0  0  0  0  0
    4.3727   -0.3250    0.0807 C   0  0  0  0  0  0  0  0  0  0  0  0
    5.9137   -0.8263    0.7570 Cl  0  0  0  0  0  0  0  0  0  0  0  0
    3.6888   -1.1824   -0.7361 C   0  0  0  0  0  0  0  0  0  0  0  0
    2.4583   -0.8149   -1.2918 C   0  0  0  0  0  0  0  0  0  0  0  0
  1  2  1  0
  2  3  1  0
  2  4  1  0
  4  5  1  0
  5  6  2  0
  5  7  1  0
  7  8  1  0
  8  9  2  0
  8 10  1  0
 10 11  1  0
 11 12  2  0
 12 13  1  0
 13 14  2  0
 14 15  1  0
 14 16  1  0
 16 17  2  0
 17 11  1  0
M  END
>  <zinc_id>  (1) 
ZINC000014002053

>  <smiles>  (1) 
CC(C)NC(=S)NC(=O)Cc1ccc(Cl)cc1

$$$$
