
     RDKit          3D

 16 16  0  0  0  0  0  0  0  0999 V2000
    5.1012    0.5809    0.2363 C   0  0  0  0  0  0  0  0  0  0  0  0
    4.0009    1.4733   -0.2753 C   0  0  0  0  0  0  0  0  0  0  0  0
    4.0748    1.5914   -1.7795 C   0  0  0  0  0  0  0  0  0  0  0  0
    2.6809    0.9967    0.0933 N   0  0  0  0  0  0  0  0  0  0  0  0
    2.2055   -0.2774   -0.3119 C   0  0  0  0  0  0  0  0  0  0  0  0
    3.0753   -1.2255   -0.4021 N   0  0  0  0  0  0  0  0  0  0  0  0
    0.8664   -0.5657   -0.6164 N   0  0  0  0  0  0  0  0  0  0  0  0
    0.3014   -1.8824   -0.3821 C   0  0  0  0  0  0  0  0  0  0  0  0
   -1.1326   -1.9703   -0.7751 C   0  0  0  0  0  0  0  0  0  0  0  0
   -1.9938   -1.0076   -0.0209 C   0  0  0  0  0  0  0  0  0  0  0  0
   -2.2125    0.2617   -0.5148 C   0  0  0  0  0  0  0  0  0  0  0  0
   -2.9986    1.1863    0.1429 C   0  0  0  0  0  0  0  0  0  0  0  0
   -3.6026    0.8627    1.3400 C   0  0  0  0  0  0  0  0  0  0  0  0
   -4.3859    1.7278    2.0330 F   0  0  0  0  0  0  0  0  0  0  0  0
   -3.3848   -0.4175    1.8427 C   0  0  0  0  0  0  0  0  0  0  0  0
   -2.5955   -1.3346    1.1747 C   0  0  0  0  0  0  0  0  0  0  0  0
  1  2  1  0
  2  3  1  0
  2  4  1  0
  4  5  1  0
  5  6  2  0
  5  7  1  0
  7  8  1  0
  8  9  1  0
  9 10  1  0
 10 11  2  0
 11 12  1  0
 12 13  2  0
 13 14  1  0
 13 15  1  0
 15 16  2  0
 16 10  1  0
M  END
>  <zinc_id>  (1) 
ZINC000052040937

>  <smiles>  (1) 
CC(C)NC(=N)NCCc1ccc(F)cc1

$$$$
