
     RDKit          3D

 16 16  0  0  0  0  0  0  0  0999 V2000
    6.4175   -0.4887   -0.2007 C   0  0  0  0  0  0  0  0  0  0  0  0
    5.1002    0.2231   -0.3569 C   0  0  0  0  0  0  0  0  0  0  0  0
    4.9267    1.3243    0.6670 C   0  0  0  0  0  0  0  0  0  0  0  0
    3.9678   -0.6907   -0.1865 N   0  0  0  0  0  0  0  0  0  0  0  0
    2.6317   -0.2460   -0.2122 C   0  0  0  0  0  0  0  0  0  0  0  0
    2.4182    0.9710   -0.3870 O   0  0  0  0  0  0  0  0  0  0  0  0
    1.5046   -1.0987   -0.0513 N   0  0  0  0  0  0  0  0  0  0  0  0
    0.1995   -0.6201   -0.0792 N   0  0  0  0  0  0  0  0  0  0  0  0
   -0.8363   -1.2272    0.3212 C   0  0  0  0  0  0  0  0  0  0  0  0
   -2.1403   -0.5938    0.2294 C   0  0  0  0  0  0  0  0  0  0  0  0
   -2.2404    0.6788   -0.3054 C   0  0  0  0  0  0  0  0  0  0  0  0
   -3.4476    1.3447   -0.4203 C   0  0  0  0  0  0  0  0  0  0  0  0
   -4.5795    0.6919    0.0242 C   0  0  0  0  0  0  0  0  0  0  0  0
   -6.1190    1.5376   -0.1184 Cl  0  0  0  0  0  0  0  0  0  0  0  0
   -4.4982   -0.5751    0.5591 C   0  0  0  0  0  0  0  0  0  0  0  0
   -3.3047   -1.2313    0.6712 C   0  0  0  0  0  0  0  0  0  0  0  0
  1  2  1  0
  2  3  1  0
  2  4  1  0
  4  5  1  0
  5  6  2  0
  5  7  1  0
  7  8  1  0
  8  9  2  3
  9 10  1  0
 10 11  2  0
 11 12  1  0
 12 13  2  0
 13 14  1  0
 13 15  1  0
 15 16  2  0
 16 10  1  0
M  END
>  <zinc_id>  (1) 
ZINC000745012476

>  <smiles>  (1) 
CC(C)NC(=O)NN=Cc1ccc(Cl)cc1

$$$$
