
     RDKit          3D

 16 16  0  0  0  0  0  0  0  0999 V2000
    5.2474   -1.2031    0.5518 C   0  0  0  0  0  0  0  0  0  0  0  0
    4.8824    0.1711    0.1046 C   0  0  0  0  0  0  0  0  0  0  0  0
    6.0196    1.0160   -0.3642 C   0  0  0  0  0  0  0  0  0  0  0  0
    3.7511    0.2140   -0.8067 N   0  0  0  0  0  0  0  0  0  0  0  0
    2.4699   -0.2498   -0.4779 C   0  0  0  0  0  0  0  0  0  0  0  0
    2.1558   -0.4620    0.7471 N   0  0  0  0  0  0  0  0  0  0  0  0
    1.4284   -0.5213   -1.4341 N   0  0  0  0  0  0  0  0  0  0  0  0
    0.0658   -0.0883   -1.2040 C   0  0  0  0  0  0  0  0  0  0  0  0
   -0.5864   -0.8335   -0.0584 C   0  0  0  0  0  0  0  0  0  0  0  0
   -1.9485   -0.3253    0.0844 C   0  0  0  0  0  0  0  0  0  0  0  0
   -2.9861   -0.9049   -0.5987 C   0  0  0  0  0  0  0  0  0  0  0  0
   -4.2760   -0.4541   -0.4891 C   0  0  0  0  0  0  0  0  0  0  0  0
   -4.5649    0.6122    0.3259 C   0  0  0  0  0  0  0  0  0  0  0  0
   -5.8774    1.0874    0.4507 O   0  0  0  0  0  0  0  0  0  0  0  0
   -3.5342    1.2065    1.0200 C   0  0  0  0  0  0  0  0  0  0  0  0
   -2.2468    0.7351    0.8930 C   0  0  0  0  0  0  0  0  0  0  0  0
  1  2  1  0
  2  3  1  0
  2  4  1  0
  4  5  1  0
  5  6  2  0
  5  7  1  0
  7  8  1  0
  8  9  1  0
  9 10  1  0
 10 11  2  0
 11 12  1  0
 12 13  2  0
 13 14  1  0
 13 15  1  0
 15 16  2  0
 16 10  1  0
M  END
>  <zinc_id>  (1) 
ZINC000052043329

>  <smiles>  (1) 
CC(C)NC(=N)NCCc1ccc(O)cc1

$$$$
