
     RDKit          3D

 16 16  0  0  0  0  0  0  0  0999 V2000
    4.1864    2.4997   -1.0860 C   0  0  0  0  0  0  0  0  0  0  0  0
    3.9396    1.0336   -0.8744 C   0  0  0  0  0  0  0  0  0  0  0  0
    5.0846    0.4893   -0.0454 C   0  0  0  0  0  0  0  0  0  0  0  0
    2.6657    0.8343   -0.2209 N   0  0  0  0  0  0  0  0  0  0  0  0
    2.1816   -0.4583    0.0999 C   0  0  0  0  0  0  0  0  0  0  0  0
    2.9274   -1.4863   -0.2128 N   0  0  0  0  0  0  0  0  0  0  0  0
    0.9589   -0.7301    0.7302 N   0  0  0  0  0  0  0  0  0  0  0  0
    0.3145   -2.0464    0.6342 C   0  0  0  0  0  0  0  0  0  0  0  0
   -0.9716   -2.0558    1.3982 C   0  0  0  0  0  0  0  0  0  0  0  0
   -1.8871   -1.0281    0.8399 C   0  0  0  0  0  0  0  0  0  0  0  0
   -1.8833    0.2617    1.3246 C   0  0  0  0  0  0  0  0  0  0  0  0
   -2.7270    1.2221    0.8150 C   0  0  0  0  0  0  0  0  0  0  0  0
   -3.6074    0.9369   -0.1966 C   0  0  0  0  0  0  0  0  0  0  0  0
   -4.7868    2.2031   -0.9374 Br  0  0  0  0  0  0  0  0  0  0  0  0
   -3.6230   -0.3512   -0.6928 C   0  0  0  0  0  0  0  0  0  0  0  0
   -2.7725   -1.3247   -0.1810 C   0  0  0  0  0  0  0  0  0  0  0  0
  1  2  1  0
  2  3  1  0
  2  4  1  0
  4  5  1  0
  5  6  2  0
  5  7  1  0
  7  8  1  0
  8  9  1  0
  9 10  1  0
 10 11  2  0
 11 12  1  0
 12 13  2  0
 13 14  1  0
 13 15  1  0
 15 16  2  0
 16 10  1  0
M  END
>  <zinc_id>  (1) 
ZINC000390663607

>  <smiles>  (1) 
CC(C)NC(=N)NCCc1ccc(Br)cc1

$$$$
