
     RDKit          3D

 17 17  0  0  0  0  0  0  0  0999 V2000
    3.8084    1.5779    0.7538 C   0  0  0  0  0  0  0  0  0  0  0  0
    2.5023    1.4855    1.5047 C   0  0  0  0  0  0  0  0  0  0  0  0
    2.8248    1.5255    2.9843 C   0  0  0  0  0  0  0  0  0  0  0  0
    1.9156    0.2010    1.1858 N   0  0  0  0  0  0  0  0  0  0  0  0
    1.5748   -0.1939   -0.1267 C   0  0  0  0  0  0  0  0  0  0  0  0
    1.5139    0.6734   -1.0400 N   0  0  0  0  0  0  0  0  0  0  0  0
    1.3492   -1.5384   -0.4154 N   0  0  0  0  0  0  0  0  0  0  0  0
    0.6960   -1.8743   -1.6324 C   0  0  0  0  0  0  0  0  0  0  0  0
    1.3179   -2.7176   -2.6688 N   0  0  0  0  0  0  0  0  0  0  0  0
   -0.4731   -1.4547   -1.7249 N   0  0  0  0  0  0  0  0  0  0  0  0
   -1.2381   -0.7341   -0.8491 C   0  0  0  0  0  0  0  0  0  0  0  0
   -1.4875   -0.9173    0.4964 C   0  0  0  0  0  0  0  0  0  0  0  0
   -2.3277   -0.1822    1.2504 C   0  0  0  0  0  0  0  0  0  0  0  0
   -3.0228    0.8511    0.6862 C   0  0  0  0  0  0  0  0  0  0  0  0
   -4.1403    1.8489    1.6339 Cl  0  0  0  0  0  0  0  0  0  0  0  0
   -2.8326    1.1034   -0.6547 C   0  0  0  0  0  0  0  0  0  0  0  0
   -1.9810    0.3458   -1.3836 C   0  0  0  0  0  0  0  0  0  0  0  0
  1  2  1  0
  2  3  1  0
  2  4  1  0
  4  5  1  0
  5  6  2  0
  5  7  1  0
  7  8  1  0
  8  9  1  0
  8 10  2  0
 10 11  1  0
 11 12  2  0
 12 13  1  0
 13 14  2  0
 14 15  1  0
 14 16  1  0
 16 17  2  0
 17 11  1  0
M  END
>  <zinc_id>  (1) 
ZINC000095452610

>  <smiles>  (1) 
CC(C)NC(=N)N/C(N)=N\c1ccc(Cl)cc1

$$$$
