
     RDKit          3D

 16 16  0  0  0  0  0  0  0  0999 V2000
    5.7238   -1.4249    0.0413 C   0  0  0  0  0  0  0  0  0  0  0  0
    4.8806   -0.2134    0.3516 C   0  0  0  0  0  0  0  0  0  0  0  0
    5.6748    0.9935    0.7263 C   0  0  0  0  0  0  0  0  0  0  0  0
    3.8879    0.0469   -0.6806 N   0  0  0  0  0  0  0  0  0  0  0  0
    2.5068    0.2039   -0.4031 C   0  0  0  0  0  0  0  0  0  0  0  0
    2.1317    0.1131    0.7881 O   0  0  0  0  0  0  0  0  0  0  0  0
    1.5253    0.4567   -1.3859 N   0  0  0  0  0  0  0  0  0  0  0  0
    0.1137    0.6168   -1.0942 C   0  0  0  0  0  0  0  0  0  0  0  0
   -0.4870   -0.5991   -0.4433 C   0  0  0  0  0  0  0  0  0  0  0  0
   -1.9054   -0.3440   -0.1873 C   0  0  0  0  0  0  0  0  0  0  0  0
   -2.8553   -0.6545   -1.1230 C   0  0  0  0  0  0  0  0  0  0  0  0
   -4.1985   -0.4246   -0.9069 C   0  0  0  0  0  0  0  0  0  0  0  0
   -4.6256    0.1328    0.2758 C   0  0  0  0  0  0  0  0  0  0  0  0
   -6.3437    0.4350    0.5720 Cl  0  0  0  0  0  0  0  0  0  0  0  0
   -3.6859    0.4513    1.2274 C   0  0  0  0  0  0  0  0  0  0  0  0
   -2.3433    0.2105    0.9864 C   0  0  0  0  0  0  0  0  0  0  0  0
  1  2  1  0
  2  3  1  0
  2  4  1  0
  4  5  1  0
  5  6  2  0
  5  7  1  0
  7  8  1  0
  8  9  1  0
  9 10  1  0
 10 11  2  0
 11 12  1  0
 12 13  2  0
 13 14  1  0
 13 15  1  0
 15 16  2  0
 16 10  1  0
M  END
>  <zinc_id>  (1) 
ZINC000048727568

>  <smiles>  (1) 
CC(C)NC(=O)NCCc1ccc(Cl)cc1

$$$$
