
     RDKit          3D

 16 16  0  0  0  0  0  0  0  0999 V2000
    5.6282   -0.1037   -1.6033 C   0  0  0  0  0  0  0  0  0  0  0  0
    4.7712   -0.9281   -0.6433 C   0  0  0  0  0  0  0  0  0  0  0  0
    5.6511   -1.6366    0.3632 C   0  0  0  0  0  0  0  0  0  0  0  0
    3.9172    0.0345    0.0514 N   0  0  0  0  0  0  0  0  0  0  0  0
    2.5161   -0.1376    0.1976 C   0  0  0  0  0  0  0  0  0  0  0  0
    1.9837   -1.1490   -0.2816 O   0  0  0  0  0  0  0  0  0  0  0  0
    1.6937    0.8016    0.8735 N   0  0  0  0  0  0  0  0  0  0  0  0
    0.2708    0.6657    1.0601 C   0  0  0  0  0  0  0  0  0  0  0  0
   -0.4720    0.5992   -0.1218 O   0  0  0  0  0  0  0  0  0  0  0  0
   -1.8620    0.4556    0.0303 C   0  0  0  0  0  0  0  0  0  0  0  0
   -2.4430    0.3841    1.2795 C   0  0  0  0  0  0  0  0  0  0  0  0
   -3.8012    0.2453    1.4526 C   0  0  0  0  0  0  0  0  0  0  0  0
   -4.6676    0.1659    0.3529 C   0  0  0  0  0  0  0  0  0  0  0  0
   -6.3929   -0.0133    0.5247 Cl  0  0  0  0  0  0  0  0  0  0  0  0
   -4.0798    0.2367   -0.8896 C   0  0  0  0  0  0  0  0  0  0  0  0
   -2.7135    0.3796   -1.0624 C   0  0  0  0  0  0  0  0  0  0  0  0
  1  2  1  0
  2  3  1  0
  2  4  1  0
  4  5  1  0
  5  6  2  0
  5  7  1  0
  7  8  1  0
  8  9  1  0
  9 10  1  0
 10 11  2  0
 11 12  1  0
 12 13  2  0
 13 14  1  0
 13 15  1  0
 15 16  2  0
 16 10  1  0
M  END
>  <zinc_id>  (1) 
ZINC000217301519

>  <smiles>  (1) 
CC(C)NC(=O)NCOc1ccc(Cl)cc1

$$$$
